
Circuit: Simulation of JFET 

Doing analysis at TEMP = 27.000000 and TNOM = 27.000000

Warning: v1: no DC value, transient time 0 value used

Initial Transient Solution
--------------------------

Node                                   Voltage
----                                   -------
1                                            0
2                                     0.717564
3                                           20
4                                      16.3074
5                                            0
vdd#branch                            -10148.7
v1#branch                           0.00717564



No. of Data Rows : 20008

  Measurements for Transient Analysis

vpp                 =  6.233766e-01 from=  0.000000e+00 to=  0.000000e+00

                              Simulation of JFET 
                              Transient Analysis  Tue Jul 18 22:10:21  2017
--------------------------------------------------------------------------------
Index   time            v(5)            
--------------------------------------------------------------------------------
0	0.000000e+00	0.000000e+00	
1	1.000000e-09	-3.07383e-01	
2	2.000000e-09	-3.07383e-01	
3	4.000000e-09	-3.07383e-01	
4	8.000000e-09	1.028734e-01	
5	1.600000e-08	3.159937e-01	
6	3.200000e-08	1.002603e-01	
7	6.400000e-08	-5.42184e-02	
8	1.280000e-07	-2.13655e-03	
9	2.280000e-07	2.330065e-02	
10	3.280000e-07	2.330065e-02	
11	4.280000e-07	2.330065e-02	
12	5.280000e-07	2.330065e-02	
13	6.280000e-07	2.330065e-02	
14	7.280000e-07	2.330065e-02	
15	8.280000e-07	2.330065e-02	
16	9.280000e-07	2.330065e-02	
17	1.028000e-06	2.330065e-02	
18	1.128000e-06	2.330065e-02	
19	1.228000e-06	2.330065e-02	
20	1.328000e-06	2.330065e-02	
21	1.428000e-06	2.330065e-02	
22	1.528000e-06	2.330065e-02	
23	1.628000e-06	2.330065e-02	
24	1.728000e-06	2.330065e-02	
25	1.828000e-06	2.330065e-02	
26	1.928000e-06	2.330065e-02	
27	2.028000e-06	2.330065e-02	
28	2.128000e-06	2.330065e-02	
29	2.228000e-06	2.330065e-02	
30	2.328000e-06	2.330065e-02	
31	2.428000e-06	2.330065e-02	
32	2.528000e-06	2.330065e-02	
33	2.628000e-06	2.330065e-02	
34	2.728000e-06	2.330065e-02	
35	2.828000e-06	2.330065e-02	
36	2.928000e-06	2.330065e-02	
37	3.028000e-06	2.330065e-02	
38	3.128000e-06	2.330065e-02	
39	3.228000e-06	2.330065e-02	
40	3.328000e-06	2.330065e-02	
41	3.428000e-06	2.330065e-02	
42	3.528000e-06	2.330065e-02	
43	3.628000e-06	2.330065e-02	
44	3.728000e-06	2.330065e-02	
45	3.828000e-06	2.330065e-02	
46	3.928000e-06	2.330065e-02	
47	4.028000e-06	2.330065e-02	
48	4.128000e-06	2.330065e-02	
49	4.228000e-06	2.330065e-02	
50	4.328000e-06	2.330065e-02	
51	4.428000e-06	2.330065e-02	
52	4.528000e-06	2.330065e-02	
53	4.628000e-06	2.330065e-02	
54	4.728000e-06	2.330065e-02	

Index   time            v(5)            
--------------------------------------------------------------------------------
55	4.828000e-06	2.330065e-02	
56	4.928000e-06	2.330065e-02	
57	5.028000e-06	2.330065e-02	
58	5.128000e-06	2.330065e-02	
59	5.228000e-06	2.330065e-02	
60	5.328000e-06	2.330065e-02	
61	5.428000e-06	2.330065e-02	
62	5.528000e-06	2.330065e-02	
63	5.628000e-06	2.330065e-02	
64	5.728000e-06	2.330065e-02	
65	5.828000e-06	2.330065e-02	
66	5.928000e-06	2.330065e-02	
67	6.028000e-06	2.330065e-02	
68	6.128000e-06	2.330065e-02	
69	6.228000e-06	2.330065e-02	
70	6.328000e-06	2.330065e-02	
71	6.428000e-06	2.330065e-02	
72	6.528000e-06	2.330065e-02	
73	6.628000e-06	2.330065e-02	
74	6.728000e-06	2.330065e-02	
75	6.828000e-06	2.330065e-02	
76	6.928000e-06	2.330065e-02	
77	7.028000e-06	2.330065e-02	
78	7.128000e-06	2.330065e-02	
79	7.228000e-06	2.330065e-02	
80	7.328000e-06	2.330065e-02	
81	7.428000e-06	2.330065e-02	
82	7.528000e-06	2.330065e-02	
83	7.628000e-06	2.330065e-02	
84	7.728000e-06	2.330065e-02	
85	7.828000e-06	2.330065e-02	
86	7.928000e-06	2.330065e-02	
87	8.028000e-06	2.330065e-02	
88	8.128000e-06	2.330065e-02	
89	8.228000e-06	2.330065e-02	
90	8.328000e-06	2.330065e-02	
91	8.428000e-06	2.330065e-02	
92	8.528000e-06	2.330065e-02	
93	8.628000e-06	2.330065e-02	
94	8.728000e-06	2.330065e-02	
95	8.828000e-06	2.330065e-02	
96	8.928000e-06	2.330065e-02	
97	9.028000e-06	2.330065e-02	
98	9.128000e-06	2.330065e-02	
99	9.228000e-06	2.330065e-02	
100	9.328000e-06	2.330065e-02	
101	9.428000e-06	2.330065e-02	
102	9.528000e-06	2.330065e-02	
103	9.628000e-06	2.330065e-02	
104	9.728000e-06	2.330065e-02	
105	9.828000e-06	2.330065e-02	
106	9.928000e-06	2.330065e-02	
107	1.002800e-05	2.330065e-02	
108	1.012800e-05	2.330065e-02	
109	1.022800e-05	2.330065e-02	
110	1.032800e-05	2.330065e-02	
111	1.042800e-05	2.330065e-02	
112	1.052800e-05	2.330065e-02	

Index   time            v(5)            
--------------------------------------------------------------------------------
113	1.062800e-05	2.330065e-02	
114	1.072800e-05	2.330065e-02	
115	1.082800e-05	2.330065e-02	
116	1.092800e-05	2.330065e-02	
117	1.102800e-05	2.330065e-02	
118	1.112800e-05	2.330065e-02	
119	1.122800e-05	2.330065e-02	
120	1.132800e-05	2.330065e-02	
121	1.142800e-05	2.330065e-02	
122	1.152800e-05	2.330065e-02	
123	1.162800e-05	2.330065e-02	
124	1.172800e-05	2.330065e-02	
125	1.182800e-05	2.330065e-02	
126	1.192800e-05	2.330065e-02	
127	1.202800e-05	2.330065e-02	
128	1.212800e-05	2.330065e-02	
129	1.222800e-05	2.330065e-02	
130	1.232800e-05	2.330065e-02	
131	1.242800e-05	2.330065e-02	
132	1.252800e-05	2.330065e-02	
133	1.262800e-05	2.330065e-02	
134	1.272800e-05	2.330065e-02	
135	1.282800e-05	2.330065e-02	
136	1.292800e-05	2.330065e-02	
137	1.302800e-05	2.330065e-02	
138	1.312800e-05	2.330065e-02	
139	1.322800e-05	2.330065e-02	
140	1.332800e-05	2.330065e-02	
141	1.342800e-05	2.330065e-02	
142	1.352800e-05	2.330065e-02	
143	1.362800e-05	2.330065e-02	
144	1.372800e-05	2.330065e-02	
145	1.382800e-05	2.330065e-02	
146	1.392800e-05	2.330065e-02	
147	1.402800e-05	2.330065e-02	
148	1.412800e-05	2.330065e-02	
149	1.422800e-05	2.330065e-02	
150	1.432800e-05	2.330065e-02	
151	1.442800e-05	2.330065e-02	
152	1.452800e-05	2.330065e-02	
153	1.462800e-05	2.330065e-02	
154	1.472800e-05	2.330065e-02	
155	1.482800e-05	2.330065e-02	
156	1.492800e-05	2.330065e-02	
157	1.502800e-05	2.330065e-02	
158	1.512800e-05	2.330065e-02	
159	1.522800e-05	2.330065e-02	
160	1.532800e-05	2.330065e-02	
161	1.542800e-05	2.330065e-02	
162	1.552800e-05	2.330065e-02	
163	1.562800e-05	2.330065e-02	
164	1.572800e-05	2.330065e-02	
165	1.582800e-05	2.330065e-02	
166	1.592800e-05	2.330065e-02	
167	1.602800e-05	2.330065e-02	
168	1.612800e-05	2.330065e-02	
169	1.622800e-05	2.330065e-02	
170	1.632800e-05	2.330065e-02	

Index   time            v(5)            
--------------------------------------------------------------------------------
171	1.642800e-05	2.330065e-02	
172	1.652800e-05	2.330065e-02	
173	1.662800e-05	2.330065e-02	
174	1.672800e-05	2.330065e-02	
175	1.682800e-05	2.330065e-02	
176	1.692800e-05	2.330065e-02	
177	1.702800e-05	2.330065e-02	
178	1.712800e-05	2.330065e-02	
179	1.722800e-05	2.330065e-02	
180	1.732800e-05	2.330065e-02	
181	1.742800e-05	2.330065e-02	
182	1.752800e-05	2.330065e-02	
183	1.762800e-05	2.330065e-02	
184	1.772800e-05	2.330065e-02	
185	1.782800e-05	2.330065e-02	
186	1.792800e-05	2.330065e-02	
187	1.802800e-05	2.330065e-02	
188	1.812800e-05	2.330065e-02	
189	1.822800e-05	2.330065e-02	
190	1.832800e-05	2.330065e-02	
191	1.842800e-05	2.330065e-02	
192	1.852800e-05	2.330065e-02	
193	1.862800e-05	2.330065e-02	
194	1.872800e-05	2.330065e-02	
195	1.882800e-05	2.330065e-02	
196	1.892800e-05	2.330065e-02	
197	1.902800e-05	2.330065e-02	
198	1.912800e-05	2.330065e-02	
199	1.922800e-05	2.330065e-02	
200	1.932800e-05	2.330065e-02	
201	1.942800e-05	2.330065e-02	
202	1.952800e-05	2.330065e-02	
203	1.962800e-05	2.330065e-02	
204	1.972800e-05	2.330065e-02	
205	1.982800e-05	2.330065e-02	
206	1.992800e-05	2.330065e-02	
207	2.002800e-05	2.330065e-02	
208	2.012800e-05	2.330065e-02	
209	2.022800e-05	2.330065e-02	
210	2.032800e-05	2.330065e-02	
211	2.042800e-05	2.330065e-02	
212	2.052800e-05	2.330065e-02	
213	2.062800e-05	2.330065e-02	
214	2.072800e-05	2.330065e-02	
215	2.082800e-05	2.330065e-02	
216	2.092800e-05	2.330065e-02	
217	2.102800e-05	2.330065e-02	
218	2.112800e-05	2.330065e-02	
219	2.122800e-05	2.330065e-02	
220	2.132800e-05	2.330065e-02	
221	2.142800e-05	2.330065e-02	
222	2.152800e-05	2.330065e-02	
223	2.162800e-05	2.330065e-02	
224	2.172800e-05	2.330065e-02	
225	2.182800e-05	2.330065e-02	
226	2.192800e-05	2.330065e-02	
227	2.202800e-05	2.330065e-02	
228	2.212800e-05	2.330065e-02	

Index   time            v(5)            
--------------------------------------------------------------------------------
229	2.222800e-05	2.330065e-02	
230	2.232800e-05	2.330065e-02	
231	2.242800e-05	2.330065e-02	
232	2.252800e-05	2.330065e-02	
233	2.262800e-05	2.330065e-02	
234	2.272800e-05	2.330065e-02	
235	2.282800e-05	2.330065e-02	
236	2.292800e-05	2.330065e-02	
237	2.302800e-05	2.330065e-02	
238	2.312800e-05	2.330065e-02	
239	2.322800e-05	2.330065e-02	
240	2.332800e-05	2.330065e-02	
241	2.342800e-05	2.330065e-02	
242	2.352800e-05	2.330065e-02	
243	2.362800e-05	2.330065e-02	
244	2.372800e-05	2.330065e-02	
245	2.382800e-05	2.330065e-02	
246	2.392800e-05	2.330065e-02	
247	2.402800e-05	2.330065e-02	
248	2.412800e-05	2.330065e-02	
249	2.422800e-05	2.330065e-02	
250	2.432800e-05	2.330065e-02	
251	2.442800e-05	2.330065e-02	
252	2.452800e-05	2.330065e-02	
253	2.462800e-05	2.330065e-02	
254	2.472800e-05	2.330065e-02	
255	2.482800e-05	2.330065e-02	
256	2.492800e-05	2.330065e-02	
257	2.502800e-05	2.330065e-02	
258	2.512800e-05	2.330065e-02	
259	2.522800e-05	2.330065e-02	
260	2.532800e-05	2.330065e-02	
261	2.542800e-05	2.330065e-02	
262	2.552800e-05	2.330065e-02	
263	2.562800e-05	2.330065e-02	
264	2.572800e-05	2.330065e-02	
265	2.582800e-05	2.330065e-02	
266	2.592800e-05	2.330065e-02	
267	2.602800e-05	2.330065e-02	
268	2.612800e-05	2.330065e-02	
269	2.622800e-05	2.330065e-02	
270	2.632800e-05	2.330065e-02	
271	2.642800e-05	2.330065e-02	
272	2.652800e-05	2.330065e-02	
273	2.662800e-05	2.330065e-02	
274	2.672800e-05	2.330065e-02	
275	2.682800e-05	2.330065e-02	
276	2.692800e-05	2.330065e-02	
277	2.702800e-05	2.330065e-02	
278	2.712800e-05	2.330065e-02	
279	2.722800e-05	2.330065e-02	
280	2.732800e-05	2.330065e-02	
281	2.742800e-05	2.330065e-02	
282	2.752800e-05	2.330065e-02	
283	2.762800e-05	2.330065e-02	
284	2.772800e-05	2.330065e-02	
285	2.782800e-05	2.330065e-02	
286	2.792800e-05	2.330065e-02	

Index   time            v(5)            
--------------------------------------------------------------------------------
287	2.802800e-05	2.330065e-02	
288	2.812800e-05	2.330065e-02	
289	2.822800e-05	2.330065e-02	
290	2.832800e-05	2.330065e-02	
291	2.842800e-05	2.330065e-02	
292	2.852800e-05	2.330065e-02	
293	2.862800e-05	2.330065e-02	
294	2.872800e-05	2.330065e-02	
295	2.882800e-05	2.330065e-02	
296	2.892800e-05	2.330065e-02	
297	2.902800e-05	2.330065e-02	
298	2.912800e-05	2.330065e-02	
299	2.922800e-05	2.330065e-02	
300	2.932800e-05	2.330065e-02	
301	2.942800e-05	2.330065e-02	
302	2.952800e-05	2.330065e-02	
303	2.962800e-05	2.330065e-02	
304	2.972800e-05	2.330065e-02	
305	2.982800e-05	2.330065e-02	
306	2.992800e-05	2.330065e-02	
307	3.002800e-05	2.330065e-02	
308	3.012800e-05	2.330065e-02	
309	3.022800e-05	2.330065e-02	
310	3.032800e-05	2.330065e-02	
311	3.042800e-05	2.330065e-02	
312	3.052800e-05	2.330065e-02	
313	3.062800e-05	2.330065e-02	
314	3.072800e-05	2.330065e-02	
315	3.082800e-05	2.330065e-02	
316	3.092800e-05	2.330065e-02	
317	3.102800e-05	2.330065e-02	
318	3.112800e-05	2.330065e-02	
319	3.122800e-05	2.330065e-02	
320	3.132800e-05	2.330065e-02	
321	3.142800e-05	2.330065e-02	
322	3.152800e-05	2.330065e-02	
323	3.162800e-05	2.330065e-02	
324	3.172800e-05	2.330065e-02	
325	3.182800e-05	2.330065e-02	
326	3.192800e-05	2.330065e-02	
327	3.202800e-05	2.330065e-02	
328	3.212800e-05	2.330065e-02	
329	3.222800e-05	2.330065e-02	
330	3.232800e-05	2.330065e-02	
331	3.242800e-05	2.330065e-02	
332	3.252800e-05	2.330065e-02	
333	3.262800e-05	2.330065e-02	
334	3.272800e-05	2.330065e-02	
335	3.282800e-05	2.330065e-02	
336	3.292800e-05	2.330065e-02	
337	3.302800e-05	2.330065e-02	
338	3.312800e-05	2.330065e-02	
339	3.322800e-05	2.330065e-02	
340	3.332800e-05	2.330065e-02	
341	3.342800e-05	2.330065e-02	
342	3.352800e-05	2.330065e-02	
343	3.362800e-05	2.330065e-02	
344	3.372800e-05	2.330065e-02	

Index   time            v(5)            
--------------------------------------------------------------------------------
345	3.382800e-05	2.330065e-02	
346	3.392800e-05	2.330065e-02	
347	3.402800e-05	2.330065e-02	
348	3.412800e-05	2.330065e-02	
349	3.422800e-05	2.330065e-02	
350	3.432800e-05	2.330065e-02	
351	3.442800e-05	2.330065e-02	
352	3.452800e-05	2.330065e-02	
353	3.462800e-05	2.330065e-02	
354	3.472800e-05	2.330065e-02	
355	3.482800e-05	2.330065e-02	
356	3.492800e-05	2.330065e-02	
357	3.502800e-05	2.330065e-02	
358	3.512800e-05	2.330065e-02	
359	3.522800e-05	2.330065e-02	
360	3.532800e-05	2.330065e-02	
361	3.542800e-05	2.330065e-02	
362	3.552800e-05	2.330065e-02	
363	3.562800e-05	2.330065e-02	
364	3.572800e-05	2.330065e-02	
365	3.582800e-05	2.330065e-02	
366	3.592800e-05	2.330065e-02	
367	3.602800e-05	2.330065e-02	
368	3.612800e-05	2.330065e-02	
369	3.622800e-05	2.330065e-02	
370	3.632800e-05	2.330065e-02	
371	3.642800e-05	2.330065e-02	
372	3.652800e-05	2.330065e-02	
373	3.662800e-05	2.330065e-02	
374	3.672800e-05	2.330065e-02	
375	3.682800e-05	2.330065e-02	
376	3.692800e-05	2.330065e-02	
377	3.702800e-05	2.330065e-02	
378	3.712800e-05	2.330065e-02	
379	3.722800e-05	2.330065e-02	
380	3.732800e-05	2.330065e-02	
381	3.742800e-05	2.330065e-02	
382	3.752800e-05	2.330065e-02	
383	3.762800e-05	2.330065e-02	
384	3.772800e-05	2.330065e-02	
385	3.782800e-05	2.330065e-02	
386	3.792800e-05	2.330065e-02	
387	3.802800e-05	2.330065e-02	
388	3.812800e-05	2.330065e-02	
389	3.822800e-05	2.330065e-02	
390	3.832800e-05	2.330065e-02	
391	3.842800e-05	2.330065e-02	
392	3.852800e-05	2.330065e-02	
393	3.862800e-05	2.330065e-02	
394	3.872800e-05	2.330065e-02	
395	3.882800e-05	2.330065e-02	
396	3.892800e-05	2.330065e-02	
397	3.902800e-05	2.330065e-02	
398	3.912800e-05	2.330065e-02	
399	3.922800e-05	2.330065e-02	
400	3.932800e-05	2.330065e-02	
401	3.942800e-05	2.330065e-02	
402	3.952800e-05	2.330065e-02	

Index   time            v(5)            
--------------------------------------------------------------------------------
403	3.962800e-05	2.330065e-02	
404	3.972800e-05	2.330065e-02	
405	3.982800e-05	2.330065e-02	
406	3.992800e-05	2.330065e-02	
407	4.002800e-05	2.330065e-02	
408	4.012800e-05	2.330065e-02	
409	4.022800e-05	2.330065e-02	
410	4.032800e-05	2.330065e-02	
411	4.042800e-05	2.330065e-02	
412	4.052800e-05	2.330065e-02	
413	4.062800e-05	2.330065e-02	
414	4.072800e-05	2.330065e-02	
415	4.082800e-05	2.330065e-02	
416	4.092800e-05	2.330065e-02	
417	4.102800e-05	2.330065e-02	
418	4.112800e-05	2.330065e-02	
419	4.122800e-05	2.330065e-02	
420	4.132800e-05	2.330065e-02	
421	4.142800e-05	2.330065e-02	
422	4.152800e-05	2.330065e-02	
423	4.162800e-05	2.330065e-02	
424	4.172800e-05	2.330065e-02	
425	4.182800e-05	2.330065e-02	
426	4.192800e-05	2.330065e-02	
427	4.202800e-05	2.330065e-02	
428	4.212800e-05	2.330065e-02	
429	4.222800e-05	2.330065e-02	
430	4.232800e-05	2.330065e-02	
431	4.242800e-05	2.330065e-02	
432	4.252800e-05	2.330065e-02	
433	4.262800e-05	2.330065e-02	
434	4.272800e-05	2.330065e-02	
435	4.282800e-05	2.330065e-02	
436	4.292800e-05	2.330065e-02	
437	4.302800e-05	2.330065e-02	
438	4.312800e-05	2.330065e-02	
439	4.322800e-05	2.330065e-02	
440	4.332800e-05	2.330065e-02	
441	4.342800e-05	2.330065e-02	
442	4.352800e-05	2.330065e-02	
443	4.362800e-05	2.330065e-02	
444	4.372800e-05	2.330065e-02	
445	4.382800e-05	2.330065e-02	
446	4.392800e-05	2.330065e-02	
447	4.402800e-05	2.330065e-02	
448	4.412800e-05	2.330065e-02	
449	4.422800e-05	2.330065e-02	
450	4.432800e-05	2.330065e-02	
451	4.442800e-05	2.330065e-02	
452	4.452800e-05	2.330065e-02	
453	4.462800e-05	2.330065e-02	
454	4.472800e-05	2.330065e-02	
455	4.482800e-05	2.330065e-02	
456	4.492800e-05	2.330065e-02	
457	4.502800e-05	2.330065e-02	
458	4.512800e-05	2.330065e-02	
459	4.522800e-05	2.330065e-02	
460	4.532800e-05	2.330065e-02	

Index   time            v(5)            
--------------------------------------------------------------------------------
461	4.542800e-05	2.330065e-02	
462	4.552800e-05	2.330065e-02	
463	4.562800e-05	2.330065e-02	
464	4.572800e-05	2.330065e-02	
465	4.582800e-05	2.330065e-02	
466	4.592800e-05	2.330065e-02	
467	4.602800e-05	2.330065e-02	
468	4.612800e-05	2.330065e-02	
469	4.622800e-05	2.330065e-02	
470	4.632800e-05	2.330065e-02	
471	4.642800e-05	2.330065e-02	
472	4.652800e-05	2.330065e-02	
473	4.662800e-05	2.330065e-02	
474	4.672800e-05	2.330065e-02	
475	4.682800e-05	2.330065e-02	
476	4.692800e-05	2.330065e-02	
477	4.702800e-05	2.330065e-02	
478	4.712800e-05	2.330065e-02	
479	4.722800e-05	2.330065e-02	
480	4.732800e-05	2.330065e-02	
481	4.742800e-05	2.330065e-02	
482	4.752800e-05	2.330065e-02	
483	4.762800e-05	2.330065e-02	
484	4.772800e-05	2.330065e-02	
485	4.782800e-05	2.330065e-02	
486	4.792800e-05	2.330065e-02	
487	4.802800e-05	2.330065e-02	
488	4.812800e-05	2.330065e-02	
489	4.822800e-05	2.330065e-02	
490	4.832800e-05	2.330065e-02	
491	4.842800e-05	2.330065e-02	
492	4.852800e-05	2.330065e-02	
493	4.862800e-05	2.330065e-02	
494	4.872800e-05	2.330065e-02	
495	4.882800e-05	2.330065e-02	
496	4.892800e-05	2.330065e-02	
497	4.902800e-05	2.330065e-02	
498	4.912800e-05	2.330065e-02	
499	4.922800e-05	2.330065e-02	
500	4.932800e-05	2.330065e-02	
501	4.942800e-05	2.330065e-02	
502	4.952800e-05	2.330065e-02	
503	4.962800e-05	2.330065e-02	
504	4.972800e-05	2.330065e-02	
505	4.982800e-05	2.330065e-02	
506	4.992800e-05	2.330065e-02	
507	5.002800e-05	2.330065e-02	
508	5.012800e-05	2.330065e-02	
509	5.022800e-05	2.330065e-02	
510	5.032800e-05	2.330065e-02	
511	5.042800e-05	2.330065e-02	
512	5.052800e-05	2.330065e-02	
513	5.062800e-05	2.330065e-02	
514	5.072800e-05	2.330065e-02	
515	5.082800e-05	2.330065e-02	
516	5.092800e-05	2.330065e-02	
517	5.102800e-05	2.330065e-02	
518	5.112800e-05	2.330065e-02	

Index   time            v(5)            
--------------------------------------------------------------------------------
519	5.122800e-05	2.330065e-02	
520	5.132800e-05	2.330065e-02	
521	5.142800e-05	2.330065e-02	
522	5.152800e-05	2.330065e-02	
523	5.162800e-05	2.330065e-02	
524	5.172800e-05	2.330065e-02	
525	5.182800e-05	2.330065e-02	
526	5.192800e-05	2.330065e-02	
527	5.202800e-05	2.330065e-02	
528	5.212800e-05	2.330065e-02	
529	5.222800e-05	2.330065e-02	
530	5.232800e-05	2.330065e-02	
531	5.242800e-05	2.330065e-02	
532	5.252800e-05	2.330065e-02	
533	5.262800e-05	2.330065e-02	
534	5.272800e-05	2.330065e-02	
535	5.282800e-05	2.330065e-02	
536	5.292800e-05	2.330065e-02	
537	5.302800e-05	2.330065e-02	
538	5.312800e-05	2.330065e-02	
539	5.322800e-05	2.330065e-02	
540	5.332800e-05	2.330065e-02	
541	5.342800e-05	2.330065e-02	
542	5.352800e-05	2.330065e-02	
543	5.362800e-05	2.330065e-02	
544	5.372800e-05	2.330065e-02	
545	5.382800e-05	2.330065e-02	
546	5.392800e-05	2.330065e-02	
547	5.402800e-05	2.330065e-02	
548	5.412800e-05	2.330065e-02	
549	5.422800e-05	2.330065e-02	
550	5.432800e-05	2.330065e-02	
551	5.442800e-05	2.330065e-02	
552	5.452800e-05	2.330065e-02	
553	5.462800e-05	2.330065e-02	
554	5.472800e-05	2.330065e-02	
555	5.482800e-05	2.330065e-02	
556	5.492800e-05	2.330065e-02	
557	5.502800e-05	2.330065e-02	
558	5.512800e-05	2.330065e-02	
559	5.522800e-05	2.330065e-02	
560	5.532800e-05	2.330065e-02	
561	5.542800e-05	2.330065e-02	
562	5.552800e-05	2.330065e-02	
563	5.562800e-05	2.330065e-02	
564	5.572800e-05	2.330065e-02	
565	5.582800e-05	2.330065e-02	
566	5.592800e-05	2.330065e-02	
567	5.602800e-05	2.330065e-02	
568	5.612800e-05	2.330065e-02	
569	5.622800e-05	2.330065e-02	
570	5.632800e-05	2.330065e-02	
571	5.642800e-05	2.330065e-02	
572	5.652800e-05	2.330065e-02	
573	5.662800e-05	2.330065e-02	
574	5.672800e-05	2.330065e-02	
575	5.682800e-05	2.330065e-02	
576	5.692800e-05	2.330065e-02	

Index   time            v(5)            
--------------------------------------------------------------------------------
577	5.702800e-05	2.330065e-02	
578	5.712800e-05	2.330065e-02	
579	5.722800e-05	2.330065e-02	
580	5.732800e-05	2.330065e-02	
581	5.742800e-05	2.330065e-02	
582	5.752800e-05	2.330065e-02	
583	5.762800e-05	2.330065e-02	
584	5.772800e-05	2.330065e-02	
585	5.782800e-05	2.330065e-02	
586	5.792800e-05	2.330065e-02	
587	5.802800e-05	2.330065e-02	
588	5.812800e-05	2.330065e-02	
589	5.822800e-05	2.330065e-02	
590	5.832800e-05	2.330065e-02	
591	5.842800e-05	2.330065e-02	
592	5.852800e-05	2.330065e-02	
593	5.862800e-05	2.330065e-02	
594	5.872800e-05	2.330065e-02	
595	5.882800e-05	2.330065e-02	
596	5.892800e-05	2.330065e-02	
597	5.902800e-05	2.330065e-02	
598	5.912800e-05	2.330065e-02	
599	5.922800e-05	2.330065e-02	
600	5.932800e-05	2.330065e-02	
601	5.942800e-05	2.330065e-02	
602	5.952800e-05	2.330065e-02	
603	5.962800e-05	2.330065e-02	
604	5.972800e-05	2.330065e-02	
605	5.982800e-05	2.330065e-02	
606	5.992800e-05	2.330065e-02	
607	6.002800e-05	2.330065e-02	
608	6.012800e-05	2.330065e-02	
609	6.022800e-05	2.330065e-02	
610	6.032800e-05	2.330065e-02	
611	6.042800e-05	2.330065e-02	
612	6.052800e-05	2.330065e-02	
613	6.062800e-05	2.330065e-02	
614	6.072800e-05	2.330065e-02	
615	6.082800e-05	2.330065e-02	
616	6.092800e-05	2.330065e-02	
617	6.102800e-05	2.330065e-02	
618	6.112800e-05	2.330065e-02	
619	6.122800e-05	2.330065e-02	
620	6.132800e-05	2.330065e-02	
621	6.142800e-05	2.330065e-02	
622	6.152800e-05	2.330065e-02	
623	6.162800e-05	2.330065e-02	
624	6.172800e-05	2.330065e-02	
625	6.182800e-05	2.330065e-02	
626	6.192800e-05	2.330065e-02	
627	6.202800e-05	2.330065e-02	
628	6.212800e-05	2.330065e-02	
629	6.222800e-05	2.330065e-02	
630	6.232800e-05	2.330065e-02	
631	6.242800e-05	2.330065e-02	
632	6.252800e-05	2.330065e-02	
633	6.262800e-05	2.330065e-02	
634	6.272800e-05	2.330065e-02	

Index   time            v(5)            
--------------------------------------------------------------------------------
635	6.282800e-05	2.330065e-02	
636	6.292800e-05	2.330065e-02	
637	6.302800e-05	2.330065e-02	
638	6.312800e-05	2.330065e-02	
639	6.322800e-05	2.330065e-02	
640	6.332800e-05	2.330065e-02	
641	6.342800e-05	2.330065e-02	
642	6.352800e-05	2.330065e-02	
643	6.362800e-05	2.330065e-02	
644	6.372800e-05	2.330065e-02	
645	6.382800e-05	2.330065e-02	
646	6.392800e-05	2.330065e-02	
647	6.402800e-05	2.330065e-02	
648	6.412800e-05	2.330065e-02	
649	6.422800e-05	2.330065e-02	
650	6.432800e-05	2.330065e-02	
651	6.442800e-05	2.330065e-02	
652	6.452800e-05	2.330065e-02	
653	6.462800e-05	2.330065e-02	
654	6.472800e-05	2.330065e-02	
655	6.482800e-05	2.330065e-02	
656	6.492800e-05	2.330065e-02	
657	6.502800e-05	2.330065e-02	
658	6.512800e-05	2.330065e-02	
659	6.522800e-05	2.330065e-02	
660	6.532800e-05	2.330065e-02	
661	6.542800e-05	2.330065e-02	
662	6.552800e-05	2.330065e-02	
663	6.562800e-05	2.330065e-02	
664	6.572800e-05	2.330065e-02	
665	6.582800e-05	2.330065e-02	
666	6.592800e-05	2.330065e-02	
667	6.602800e-05	2.330065e-02	
668	6.612800e-05	2.330065e-02	
669	6.622800e-05	2.330065e-02	
670	6.632800e-05	2.330065e-02	
671	6.642800e-05	2.330065e-02	
672	6.652800e-05	2.330065e-02	
673	6.662800e-05	2.330065e-02	
674	6.672800e-05	2.330065e-02	
675	6.682800e-05	2.330065e-02	
676	6.692800e-05	2.330065e-02	
677	6.702800e-05	2.330065e-02	
678	6.712800e-05	2.330065e-02	
679	6.722800e-05	2.330065e-02	
680	6.732800e-05	2.330065e-02	
681	6.742800e-05	2.330065e-02	
682	6.752800e-05	2.330065e-02	
683	6.762800e-05	2.330065e-02	
684	6.772800e-05	2.330065e-02	
685	6.782800e-05	2.330065e-02	
686	6.792800e-05	2.330065e-02	
687	6.802800e-05	2.330065e-02	
688	6.812800e-05	2.330065e-02	
689	6.822800e-05	2.330065e-02	
690	6.832800e-05	2.330065e-02	
691	6.842800e-05	2.330065e-02	
692	6.852800e-05	2.330065e-02	

Index   time            v(5)            
--------------------------------------------------------------------------------
693	6.862800e-05	2.330065e-02	
694	6.872800e-05	2.330065e-02	
695	6.882800e-05	2.330065e-02	
696	6.892800e-05	2.330065e-02	
697	6.902800e-05	2.330065e-02	
698	6.912800e-05	2.330065e-02	
699	6.922800e-05	2.330065e-02	
700	6.932800e-05	2.330065e-02	
701	6.942800e-05	2.330065e-02	
702	6.952800e-05	2.330065e-02	
703	6.962800e-05	2.330065e-02	
704	6.972800e-05	2.330065e-02	
705	6.982800e-05	2.330065e-02	
706	6.992800e-05	2.330065e-02	
707	7.002800e-05	2.330065e-02	
708	7.012800e-05	2.330065e-02	
709	7.022800e-05	2.330065e-02	
710	7.032800e-05	2.330065e-02	
711	7.042800e-05	2.330065e-02	
712	7.052800e-05	2.330065e-02	
713	7.062800e-05	2.330065e-02	
714	7.072800e-05	2.330065e-02	
715	7.082800e-05	2.330065e-02	
716	7.092800e-05	2.330065e-02	
717	7.102800e-05	2.330065e-02	
718	7.112800e-05	2.330065e-02	
719	7.122800e-05	2.330065e-02	
720	7.132800e-05	2.330065e-02	
721	7.142800e-05	2.330065e-02	
722	7.152800e-05	2.330065e-02	
723	7.162800e-05	2.330065e-02	
724	7.172800e-05	2.330065e-02	
725	7.182800e-05	2.330065e-02	
726	7.192800e-05	2.330065e-02	
727	7.202800e-05	2.330065e-02	
728	7.212800e-05	2.330065e-02	
729	7.222800e-05	2.330065e-02	
730	7.232800e-05	2.330065e-02	
731	7.242800e-05	2.330065e-02	
732	7.252800e-05	2.330065e-02	
733	7.262800e-05	2.330065e-02	
734	7.272800e-05	2.330065e-02	
735	7.282800e-05	2.330065e-02	
736	7.292800e-05	2.330065e-02	
737	7.302800e-05	2.330065e-02	
738	7.312800e-05	2.330065e-02	
739	7.322800e-05	2.330065e-02	
740	7.332800e-05	2.330065e-02	
741	7.342800e-05	2.330065e-02	
742	7.352800e-05	2.330065e-02	
743	7.362800e-05	2.330065e-02	
744	7.372800e-05	2.330065e-02	
745	7.382800e-05	2.330065e-02	
746	7.392800e-05	2.330065e-02	
747	7.402800e-05	2.330065e-02	
748	7.412800e-05	2.330065e-02	
749	7.422800e-05	2.330065e-02	
750	7.432800e-05	2.330065e-02	

Index   time            v(5)            
--------------------------------------------------------------------------------
751	7.442800e-05	2.330065e-02	
752	7.452800e-05	2.330065e-02	
753	7.462800e-05	2.330065e-02	
754	7.472800e-05	2.330065e-02	
755	7.482800e-05	2.330065e-02	
756	7.492800e-05	2.330065e-02	
757	7.502800e-05	2.330065e-02	
758	7.512800e-05	2.330065e-02	
759	7.522800e-05	2.330065e-02	
760	7.532800e-05	2.330065e-02	
761	7.542800e-05	2.330065e-02	
762	7.552800e-05	2.330065e-02	
763	7.562800e-05	2.330065e-02	
764	7.572800e-05	2.330065e-02	
765	7.582800e-05	2.330065e-02	
766	7.592800e-05	2.330065e-02	
767	7.602800e-05	2.330065e-02	
768	7.612800e-05	2.330065e-02	
769	7.622800e-05	2.330065e-02	
770	7.632800e-05	2.330065e-02	
771	7.642800e-05	2.330065e-02	
772	7.652800e-05	2.330065e-02	
773	7.662800e-05	2.330065e-02	
774	7.672800e-05	2.330065e-02	
775	7.682800e-05	2.330065e-02	
776	7.692800e-05	2.330065e-02	
777	7.702800e-05	2.330065e-02	
778	7.712800e-05	2.330065e-02	
779	7.722800e-05	2.330065e-02	
780	7.732800e-05	2.330065e-02	
781	7.742800e-05	2.330065e-02	
782	7.752800e-05	2.330065e-02	
783	7.762800e-05	2.330065e-02	
784	7.772800e-05	2.330065e-02	
785	7.782800e-05	2.330065e-02	
786	7.792800e-05	2.330065e-02	
787	7.802800e-05	2.330065e-02	
788	7.812800e-05	2.330065e-02	
789	7.822800e-05	2.330065e-02	
790	7.832800e-05	2.330065e-02	
791	7.842800e-05	2.330065e-02	
792	7.852800e-05	2.330065e-02	
793	7.862800e-05	2.330065e-02	
794	7.872800e-05	2.330065e-02	
795	7.882800e-05	2.330065e-02	
796	7.892800e-05	2.330065e-02	
797	7.902800e-05	2.330065e-02	
798	7.912800e-05	2.330065e-02	
799	7.922800e-05	2.330065e-02	
800	7.932800e-05	2.330065e-02	
801	7.942800e-05	2.330065e-02	
802	7.952800e-05	2.330065e-02	
803	7.962800e-05	2.330065e-02	
804	7.972800e-05	2.330065e-02	
805	7.982800e-05	2.330065e-02	
806	7.992800e-05	2.330065e-02	
807	8.002800e-05	2.330065e-02	
808	8.012800e-05	2.330065e-02	

Index   time            v(5)            
--------------------------------------------------------------------------------
809	8.022800e-05	2.330065e-02	
810	8.032800e-05	2.330065e-02	
811	8.042800e-05	2.330065e-02	
812	8.052800e-05	2.330065e-02	
813	8.062800e-05	2.330065e-02	
814	8.072800e-05	2.330065e-02	
815	8.082800e-05	2.330065e-02	
816	8.092800e-05	2.330065e-02	
817	8.102800e-05	2.330065e-02	
818	8.112800e-05	2.330065e-02	
819	8.122800e-05	2.330065e-02	
820	8.132800e-05	2.330065e-02	
821	8.142800e-05	2.330065e-02	
822	8.152800e-05	2.330065e-02	
823	8.162800e-05	2.330065e-02	
824	8.172800e-05	2.330065e-02	
825	8.182800e-05	2.330065e-02	
826	8.192800e-05	2.330065e-02	
827	8.202800e-05	2.330065e-02	
828	8.212800e-05	2.330065e-02	
829	8.222800e-05	2.330065e-02	
830	8.232800e-05	2.330065e-02	
831	8.242800e-05	2.330065e-02	
832	8.252800e-05	2.330065e-02	
833	8.262800e-05	2.330065e-02	
834	8.272800e-05	2.330065e-02	
835	8.282800e-05	2.330065e-02	
836	8.292800e-05	2.330065e-02	
837	8.302800e-05	2.330065e-02	
838	8.312800e-05	2.330065e-02	
839	8.322800e-05	2.330065e-02	
840	8.332800e-05	2.330065e-02	
841	8.342800e-05	2.330065e-02	
842	8.352800e-05	2.330065e-02	
843	8.362800e-05	2.330065e-02	
844	8.372800e-05	2.330065e-02	
845	8.382800e-05	2.330065e-02	
846	8.392800e-05	2.330065e-02	
847	8.402800e-05	2.330065e-02	
848	8.412800e-05	2.330065e-02	
849	8.422800e-05	2.330065e-02	
850	8.432800e-05	2.330065e-02	
851	8.442800e-05	2.330065e-02	
852	8.452800e-05	2.330065e-02	
853	8.462800e-05	2.330065e-02	
854	8.472800e-05	2.330065e-02	
855	8.482800e-05	2.330065e-02	
856	8.492800e-05	2.330065e-02	
857	8.502800e-05	2.330065e-02	
858	8.512800e-05	2.330065e-02	
859	8.522800e-05	2.330065e-02	
860	8.532800e-05	2.330065e-02	
861	8.542800e-05	2.330065e-02	
862	8.552800e-05	2.330065e-02	
863	8.562800e-05	2.330065e-02	
864	8.572800e-05	2.330065e-02	
865	8.582800e-05	2.330065e-02	
866	8.592800e-05	2.330065e-02	

Index   time            v(5)            
--------------------------------------------------------------------------------
867	8.602800e-05	2.330065e-02	
868	8.612800e-05	2.330065e-02	
869	8.622800e-05	2.330065e-02	
870	8.632800e-05	2.330065e-02	
871	8.642800e-05	2.330065e-02	
872	8.652800e-05	2.330065e-02	
873	8.662800e-05	2.330065e-02	
874	8.672800e-05	2.330065e-02	
875	8.682800e-05	2.330065e-02	
876	8.692800e-05	2.330065e-02	
877	8.702800e-05	2.330065e-02	
878	8.712800e-05	2.330065e-02	
879	8.722800e-05	2.330065e-02	
880	8.732800e-05	2.330065e-02	
881	8.742800e-05	2.330065e-02	
882	8.752800e-05	2.330065e-02	
883	8.762800e-05	2.330065e-02	
884	8.772800e-05	2.330065e-02	
885	8.782800e-05	2.330065e-02	
886	8.792800e-05	2.330065e-02	
887	8.802800e-05	2.330065e-02	
888	8.812800e-05	2.330065e-02	
889	8.822800e-05	2.330065e-02	
890	8.832800e-05	2.330065e-02	
891	8.842800e-05	2.330065e-02	
892	8.852800e-05	2.330065e-02	
893	8.862800e-05	2.330065e-02	
894	8.872800e-05	2.330065e-02	
895	8.882800e-05	2.330065e-02	
896	8.892800e-05	2.330065e-02	
897	8.902800e-05	2.330065e-02	
898	8.912800e-05	2.330065e-02	
899	8.922800e-05	2.330065e-02	
900	8.932800e-05	2.330065e-02	
901	8.942800e-05	2.330065e-02	
902	8.952800e-05	2.330065e-02	
903	8.962800e-05	2.330065e-02	
904	8.972800e-05	2.330065e-02	
905	8.982800e-05	2.330065e-02	
906	8.992800e-05	2.330065e-02	
907	9.002800e-05	2.330065e-02	
908	9.012800e-05	2.330065e-02	
909	9.022800e-05	2.330065e-02	
910	9.032800e-05	2.330065e-02	
911	9.042800e-05	2.330065e-02	
912	9.052800e-05	2.330065e-02	
913	9.062800e-05	2.330065e-02	
914	9.072800e-05	2.330065e-02	
915	9.082800e-05	2.330065e-02	
916	9.092800e-05	2.330065e-02	
917	9.102800e-05	2.330065e-02	
918	9.112800e-05	2.330065e-02	
919	9.122800e-05	2.330065e-02	
920	9.132800e-05	2.330065e-02	
921	9.142800e-05	2.330065e-02	
922	9.152800e-05	2.330065e-02	
923	9.162800e-05	2.330065e-02	
924	9.172800e-05	2.330065e-02	

Index   time            v(5)            
--------------------------------------------------------------------------------
925	9.182800e-05	2.330065e-02	
926	9.192800e-05	2.330065e-02	
927	9.202800e-05	2.330065e-02	
928	9.212800e-05	2.330065e-02	
929	9.222800e-05	2.330065e-02	
930	9.232800e-05	2.330065e-02	
931	9.242800e-05	2.330065e-02	
932	9.252800e-05	2.330065e-02	
933	9.262800e-05	2.330065e-02	
934	9.272800e-05	2.330065e-02	
935	9.282800e-05	2.330065e-02	
936	9.292800e-05	2.330065e-02	
937	9.302800e-05	2.330065e-02	
938	9.312800e-05	2.330065e-02	
939	9.322800e-05	2.330065e-02	
940	9.332800e-05	2.330065e-02	
941	9.342800e-05	2.330065e-02	
942	9.352800e-05	2.330065e-02	
943	9.362800e-05	2.330065e-02	
944	9.372800e-05	2.330065e-02	
945	9.382800e-05	2.330065e-02	
946	9.392800e-05	2.330065e-02	
947	9.402800e-05	2.330065e-02	
948	9.412800e-05	2.330065e-02	
949	9.422800e-05	2.330065e-02	
950	9.432800e-05	2.330065e-02	
951	9.442800e-05	2.330065e-02	
952	9.452800e-05	2.330065e-02	
953	9.462800e-05	2.330065e-02	
954	9.472800e-05	2.330065e-02	
955	9.482800e-05	2.330065e-02	
956	9.492800e-05	2.330065e-02	
957	9.502800e-05	2.330065e-02	
958	9.512800e-05	2.330065e-02	
959	9.522800e-05	2.330065e-02	
960	9.532800e-05	2.330065e-02	
961	9.542800e-05	2.330065e-02	
962	9.552800e-05	2.330065e-02	
963	9.562800e-05	2.330065e-02	
964	9.572800e-05	2.330065e-02	
965	9.582800e-05	2.330065e-02	
966	9.592800e-05	2.330065e-02	
967	9.602800e-05	2.330065e-02	
968	9.612800e-05	2.330065e-02	
969	9.622800e-05	2.330065e-02	
970	9.632800e-05	2.330065e-02	
971	9.642800e-05	2.330065e-02	
972	9.652800e-05	2.330065e-02	
973	9.662800e-05	2.330065e-02	
974	9.672800e-05	2.330065e-02	
975	9.682800e-05	2.330065e-02	
976	9.692800e-05	2.330065e-02	
977	9.702800e-05	2.330065e-02	
978	9.712800e-05	2.330065e-02	
979	9.722800e-05	2.330065e-02	
980	9.732800e-05	2.330065e-02	
981	9.742800e-05	2.330065e-02	
982	9.752800e-05	2.330065e-02	

Index   time            v(5)            
--------------------------------------------------------------------------------
983	9.762800e-05	2.330065e-02	
984	9.772800e-05	2.330065e-02	
985	9.782800e-05	2.330065e-02	
986	9.792800e-05	2.330065e-02	
987	9.802800e-05	2.330065e-02	
988	9.812800e-05	2.330065e-02	
989	9.822800e-05	2.330065e-02	
990	9.832800e-05	2.330065e-02	
991	9.842800e-05	2.330065e-02	
992	9.852800e-05	2.330065e-02	
993	9.862800e-05	2.330065e-02	
994	9.872800e-05	2.330065e-02	
995	9.882800e-05	2.330065e-02	
996	9.892800e-05	2.330065e-02	
997	9.902800e-05	2.330065e-02	
998	9.912800e-05	2.330065e-02	
999	9.922800e-05	2.330065e-02	
1000	9.932800e-05	2.330065e-02	
1001	9.942800e-05	2.330065e-02	
1002	9.952800e-05	2.330065e-02	
1003	9.962800e-05	2.330065e-02	
1004	9.972800e-05	2.330065e-02	
1005	9.982800e-05	2.330065e-02	
1006	9.992800e-05	2.330065e-02	
1007	1.000280e-04	2.330065e-02	
1008	1.001280e-04	2.330065e-02	
1009	1.002280e-04	2.330065e-02	
1010	1.003280e-04	2.330065e-02	
1011	1.004280e-04	2.330065e-02	
1012	1.005280e-04	2.330065e-02	
1013	1.006280e-04	2.330065e-02	
1014	1.007280e-04	2.330065e-02	
1015	1.008280e-04	2.330065e-02	
1016	1.009280e-04	2.330065e-02	
1017	1.010280e-04	2.330065e-02	
1018	1.011280e-04	2.330065e-02	
1019	1.012280e-04	2.330065e-02	
1020	1.013280e-04	2.330065e-02	
1021	1.014280e-04	2.330065e-02	
1022	1.015280e-04	2.330065e-02	
1023	1.016280e-04	2.330065e-02	
1024	1.017280e-04	2.330065e-02	
1025	1.018280e-04	2.330065e-02	
1026	1.019280e-04	2.330065e-02	
1027	1.020280e-04	2.330065e-02	
1028	1.021280e-04	2.330065e-02	
1029	1.022280e-04	2.330065e-02	
1030	1.023280e-04	2.330065e-02	
1031	1.024280e-04	2.330065e-02	
1032	1.025280e-04	2.330065e-02	
1033	1.026280e-04	2.330065e-02	
1034	1.027280e-04	2.330065e-02	
1035	1.028280e-04	2.330065e-02	
1036	1.029280e-04	2.330065e-02	
1037	1.030280e-04	2.330065e-02	
1038	1.031280e-04	2.330065e-02	
1039	1.032280e-04	2.330065e-02	
1040	1.033280e-04	2.330065e-02	

Index   time            v(5)            
--------------------------------------------------------------------------------
1041	1.034280e-04	2.330065e-02	
1042	1.035280e-04	2.330065e-02	
1043	1.036280e-04	2.330065e-02	
1044	1.037280e-04	2.330065e-02	
1045	1.038280e-04	2.330065e-02	
1046	1.039280e-04	2.330065e-02	
1047	1.040280e-04	2.330065e-02	
1048	1.041280e-04	2.330065e-02	
1049	1.042280e-04	2.330065e-02	
1050	1.043280e-04	2.330065e-02	
1051	1.044280e-04	2.330065e-02	
1052	1.045280e-04	2.330065e-02	
1053	1.046280e-04	2.330065e-02	
1054	1.047280e-04	2.330065e-02	
1055	1.048280e-04	2.330065e-02	
1056	1.049280e-04	2.330065e-02	
1057	1.050280e-04	2.330065e-02	
1058	1.051280e-04	2.330065e-02	
1059	1.052280e-04	2.330065e-02	
1060	1.053280e-04	2.330065e-02	
1061	1.054280e-04	2.330065e-02	
1062	1.055280e-04	2.330065e-02	
1063	1.056280e-04	2.330065e-02	
1064	1.057280e-04	2.330065e-02	
1065	1.058280e-04	2.330065e-02	
1066	1.059280e-04	2.330065e-02	
1067	1.060280e-04	2.330065e-02	
1068	1.061280e-04	2.330065e-02	
1069	1.062280e-04	2.330065e-02	
1070	1.063280e-04	2.330065e-02	
1071	1.064280e-04	2.330065e-02	
1072	1.065280e-04	2.330065e-02	
1073	1.066280e-04	2.330065e-02	
1074	1.067280e-04	2.330065e-02	
1075	1.068280e-04	2.330065e-02	
1076	1.069280e-04	2.330065e-02	
1077	1.070280e-04	2.330065e-02	
1078	1.071280e-04	2.330065e-02	
1079	1.072280e-04	2.330065e-02	
1080	1.073280e-04	2.330065e-02	
1081	1.074280e-04	2.330065e-02	
1082	1.075280e-04	2.330065e-02	
1083	1.076280e-04	2.330065e-02	
1084	1.077280e-04	2.330065e-02	
1085	1.078280e-04	2.330065e-02	
1086	1.079280e-04	2.330065e-02	
1087	1.080280e-04	2.330065e-02	
1088	1.081280e-04	2.330065e-02	
1089	1.082280e-04	2.330065e-02	
1090	1.083280e-04	2.330065e-02	
1091	1.084280e-04	2.330065e-02	
1092	1.085280e-04	2.330065e-02	
1093	1.086280e-04	2.330065e-02	
1094	1.087280e-04	2.330065e-02	
1095	1.088280e-04	2.330065e-02	
1096	1.089280e-04	2.330065e-02	
1097	1.090280e-04	2.330065e-02	
1098	1.091280e-04	2.330065e-02	

Index   time            v(5)            
--------------------------------------------------------------------------------
1099	1.092280e-04	2.330065e-02	
1100	1.093280e-04	2.330065e-02	
1101	1.094280e-04	2.330065e-02	
1102	1.095280e-04	2.330065e-02	
1103	1.096280e-04	2.330065e-02	
1104	1.097280e-04	2.330065e-02	
1105	1.098280e-04	2.330065e-02	
1106	1.099280e-04	2.330065e-02	
1107	1.100280e-04	2.330065e-02	
1108	1.101280e-04	2.330065e-02	
1109	1.102280e-04	2.330065e-02	
1110	1.103280e-04	2.330065e-02	
1111	1.104280e-04	2.330065e-02	
1112	1.105280e-04	2.330065e-02	
1113	1.106280e-04	2.330065e-02	
1114	1.107280e-04	2.330065e-02	
1115	1.108280e-04	2.330065e-02	
1116	1.109280e-04	2.330065e-02	
1117	1.110280e-04	2.330065e-02	
1118	1.111280e-04	2.330065e-02	
1119	1.112280e-04	2.330065e-02	
1120	1.113280e-04	2.330065e-02	
1121	1.114280e-04	2.330065e-02	
1122	1.115280e-04	2.330065e-02	
1123	1.116280e-04	2.330065e-02	
1124	1.117280e-04	2.330065e-02	
1125	1.118280e-04	2.330065e-02	
1126	1.119280e-04	2.330065e-02	
1127	1.120280e-04	2.330065e-02	
1128	1.121280e-04	2.330065e-02	
1129	1.122280e-04	2.330065e-02	
1130	1.123280e-04	2.330065e-02	
1131	1.124280e-04	2.330065e-02	
1132	1.125280e-04	2.330065e-02	
1133	1.126280e-04	2.330065e-02	
1134	1.127280e-04	2.330065e-02	
1135	1.128280e-04	2.330065e-02	
1136	1.129280e-04	2.330065e-02	
1137	1.130280e-04	2.330065e-02	
1138	1.131280e-04	2.330065e-02	
1139	1.132280e-04	2.330065e-02	
1140	1.133280e-04	2.330065e-02	
1141	1.134280e-04	2.330065e-02	
1142	1.135280e-04	2.330065e-02	
1143	1.136280e-04	2.330065e-02	
1144	1.137280e-04	2.330065e-02	
1145	1.138280e-04	2.330065e-02	
1146	1.139280e-04	2.330065e-02	
1147	1.140280e-04	2.330065e-02	
1148	1.141280e-04	2.330065e-02	
1149	1.142280e-04	2.330065e-02	
1150	1.143280e-04	2.330065e-02	
1151	1.144280e-04	2.330065e-02	
1152	1.145280e-04	2.330065e-02	
1153	1.146280e-04	2.330065e-02	
1154	1.147280e-04	2.330065e-02	
1155	1.148280e-04	2.330065e-02	
1156	1.149280e-04	2.330065e-02	

Index   time            v(5)            
--------------------------------------------------------------------------------
1157	1.150280e-04	2.330065e-02	
1158	1.151280e-04	2.330065e-02	
1159	1.152280e-04	2.330065e-02	
1160	1.153280e-04	2.330065e-02	
1161	1.154280e-04	2.330065e-02	
1162	1.155280e-04	2.330065e-02	
1163	1.156280e-04	2.330065e-02	
1164	1.157280e-04	2.330065e-02	
1165	1.158280e-04	2.330065e-02	
1166	1.159280e-04	2.330065e-02	
1167	1.160280e-04	2.330065e-02	
1168	1.161280e-04	2.330065e-02	
1169	1.162280e-04	2.330065e-02	
1170	1.163280e-04	2.330065e-02	
1171	1.164280e-04	2.330065e-02	
1172	1.165280e-04	2.330065e-02	
1173	1.166280e-04	2.330065e-02	
1174	1.167280e-04	2.330065e-02	
1175	1.168280e-04	2.330065e-02	
1176	1.169280e-04	2.330065e-02	
1177	1.170280e-04	2.330065e-02	
1178	1.171280e-04	2.330065e-02	
1179	1.172280e-04	2.330065e-02	
1180	1.173280e-04	2.330065e-02	
1181	1.174280e-04	2.330065e-02	
1182	1.175280e-04	2.330065e-02	
1183	1.176280e-04	2.330065e-02	
1184	1.177280e-04	2.330065e-02	
1185	1.178280e-04	2.330065e-02	
1186	1.179280e-04	2.330065e-02	
1187	1.180280e-04	2.330065e-02	
1188	1.181280e-04	2.330065e-02	
1189	1.182280e-04	2.330065e-02	
1190	1.183280e-04	2.330065e-02	
1191	1.184280e-04	2.330065e-02	
1192	1.185280e-04	2.330065e-02	
1193	1.186280e-04	2.330065e-02	
1194	1.187280e-04	2.330065e-02	
1195	1.188280e-04	2.330065e-02	
1196	1.189280e-04	2.330065e-02	
1197	1.190280e-04	2.330065e-02	
1198	1.191280e-04	2.330065e-02	
1199	1.192280e-04	2.330065e-02	
1200	1.193280e-04	2.330065e-02	
1201	1.194280e-04	2.330065e-02	
1202	1.195280e-04	2.330065e-02	
1203	1.196280e-04	2.330065e-02	
1204	1.197280e-04	2.330065e-02	
1205	1.198280e-04	2.330065e-02	
1206	1.199280e-04	2.330065e-02	
1207	1.200280e-04	2.330065e-02	
1208	1.201280e-04	2.330065e-02	
1209	1.202280e-04	2.330065e-02	
1210	1.203280e-04	2.330065e-02	
1211	1.204280e-04	2.330065e-02	
1212	1.205280e-04	2.330065e-02	
1213	1.206280e-04	2.330065e-02	
1214	1.207280e-04	2.330065e-02	

Index   time            v(5)            
--------------------------------------------------------------------------------
1215	1.208280e-04	2.330065e-02	
1216	1.209280e-04	2.330065e-02	
1217	1.210280e-04	2.330065e-02	
1218	1.211280e-04	2.330065e-02	
1219	1.212280e-04	2.330065e-02	
1220	1.213280e-04	2.330065e-02	
1221	1.214280e-04	2.330065e-02	
1222	1.215280e-04	2.330065e-02	
1223	1.216280e-04	2.330065e-02	
1224	1.217280e-04	2.330065e-02	
1225	1.218280e-04	2.330065e-02	
1226	1.219280e-04	2.330065e-02	
1227	1.220280e-04	2.330065e-02	
1228	1.221280e-04	2.330065e-02	
1229	1.222280e-04	2.330065e-02	
1230	1.223280e-04	2.330065e-02	
1231	1.224280e-04	2.330065e-02	
1232	1.225280e-04	2.330065e-02	
1233	1.226280e-04	2.330065e-02	
1234	1.227280e-04	2.330065e-02	
1235	1.228280e-04	2.330065e-02	
1236	1.229280e-04	2.330065e-02	
1237	1.230280e-04	2.330065e-02	
1238	1.231280e-04	2.330065e-02	
1239	1.232280e-04	2.330065e-02	
1240	1.233280e-04	2.330065e-02	
1241	1.234280e-04	2.330065e-02	
1242	1.235280e-04	2.330065e-02	
1243	1.236280e-04	2.330065e-02	
1244	1.237280e-04	2.330065e-02	
1245	1.238280e-04	2.330065e-02	
1246	1.239280e-04	2.330065e-02	
1247	1.240280e-04	2.330065e-02	
1248	1.241280e-04	2.330065e-02	
1249	1.242280e-04	2.330065e-02	
1250	1.243280e-04	2.330065e-02	
1251	1.244280e-04	2.330065e-02	
1252	1.245280e-04	2.330065e-02	
1253	1.246280e-04	2.330065e-02	
1254	1.247280e-04	2.330065e-02	
1255	1.248280e-04	2.330065e-02	
1256	1.249280e-04	2.330065e-02	
1257	1.250280e-04	2.330065e-02	
1258	1.251280e-04	2.330065e-02	
1259	1.252280e-04	2.330065e-02	
1260	1.253280e-04	2.330065e-02	
1261	1.254280e-04	2.330065e-02	
1262	1.255280e-04	2.330065e-02	
1263	1.256280e-04	2.330065e-02	
1264	1.257280e-04	2.330065e-02	
1265	1.258280e-04	2.330065e-02	
1266	1.259280e-04	2.330065e-02	
1267	1.260280e-04	2.330065e-02	
1268	1.261280e-04	2.330065e-02	
1269	1.262280e-04	2.330065e-02	
1270	1.263280e-04	2.330065e-02	
1271	1.264280e-04	2.330065e-02	
1272	1.265280e-04	2.330065e-02	

Index   time            v(5)            
--------------------------------------------------------------------------------
1273	1.266280e-04	2.330065e-02	
1274	1.267280e-04	2.330065e-02	
1275	1.268280e-04	2.330065e-02	
1276	1.269280e-04	2.330065e-02	
1277	1.270280e-04	2.330065e-02	
1278	1.271280e-04	2.330065e-02	
1279	1.272280e-04	2.330065e-02	
1280	1.273280e-04	2.330065e-02	
1281	1.274280e-04	2.330065e-02	
1282	1.275280e-04	2.330065e-02	
1283	1.276280e-04	2.330065e-02	
1284	1.277280e-04	2.330065e-02	
1285	1.278280e-04	2.330065e-02	
1286	1.279280e-04	2.330065e-02	
1287	1.280280e-04	2.330065e-02	
1288	1.281280e-04	2.330065e-02	
1289	1.282280e-04	2.330065e-02	
1290	1.283280e-04	2.330065e-02	
1291	1.284280e-04	2.330065e-02	
1292	1.285280e-04	2.330065e-02	
1293	1.286280e-04	2.330065e-02	
1294	1.287280e-04	2.330065e-02	
1295	1.288280e-04	2.330065e-02	
1296	1.289280e-04	2.330065e-02	
1297	1.290280e-04	2.330065e-02	
1298	1.291280e-04	2.330065e-02	
1299	1.292280e-04	2.330065e-02	
1300	1.293280e-04	2.330065e-02	
1301	1.294280e-04	2.330065e-02	
1302	1.295280e-04	2.330065e-02	
1303	1.296280e-04	2.330065e-02	
1304	1.297280e-04	2.330065e-02	
1305	1.298280e-04	2.330065e-02	
1306	1.299280e-04	2.330065e-02	
1307	1.300280e-04	2.330065e-02	
1308	1.301280e-04	2.330065e-02	
1309	1.302280e-04	2.330065e-02	
1310	1.303280e-04	2.330065e-02	
1311	1.304280e-04	2.330065e-02	
1312	1.305280e-04	2.330065e-02	
1313	1.306280e-04	2.330065e-02	
1314	1.307280e-04	2.330065e-02	
1315	1.308280e-04	2.330065e-02	
1316	1.309280e-04	2.330065e-02	
1317	1.310280e-04	2.330065e-02	
1318	1.311280e-04	2.330065e-02	
1319	1.312280e-04	2.330065e-02	
1320	1.313280e-04	2.330065e-02	
1321	1.314280e-04	2.330065e-02	
1322	1.315280e-04	2.330065e-02	
1323	1.316280e-04	2.330065e-02	
1324	1.317280e-04	2.330065e-02	
1325	1.318280e-04	2.330065e-02	
1326	1.319280e-04	2.330065e-02	
1327	1.320280e-04	2.330065e-02	
1328	1.321280e-04	2.330065e-02	
1329	1.322280e-04	2.330065e-02	
1330	1.323280e-04	2.330065e-02	

Index   time            v(5)            
--------------------------------------------------------------------------------
1331	1.324280e-04	2.330065e-02	
1332	1.325280e-04	2.330065e-02	
1333	1.326280e-04	2.330065e-02	
1334	1.327280e-04	2.330065e-02	
1335	1.328280e-04	2.330065e-02	
1336	1.329280e-04	2.330065e-02	
1337	1.330280e-04	2.330065e-02	
1338	1.331280e-04	2.330065e-02	
1339	1.332280e-04	2.330065e-02	
1340	1.333280e-04	2.330065e-02	
1341	1.334280e-04	2.330065e-02	
1342	1.335280e-04	2.330065e-02	
1343	1.336280e-04	2.330065e-02	
1344	1.337280e-04	2.330065e-02	
1345	1.338280e-04	2.330065e-02	
1346	1.339280e-04	2.330065e-02	
1347	1.340280e-04	2.330065e-02	
1348	1.341280e-04	2.330065e-02	
1349	1.342280e-04	2.330065e-02	
1350	1.343280e-04	2.330065e-02	
1351	1.344280e-04	2.330065e-02	
1352	1.345280e-04	2.330065e-02	
1353	1.346280e-04	2.330065e-02	
1354	1.347280e-04	2.330065e-02	
1355	1.348280e-04	2.330065e-02	
1356	1.349280e-04	2.330065e-02	
1357	1.350280e-04	2.330065e-02	
1358	1.351280e-04	2.330065e-02	
1359	1.352280e-04	2.330065e-02	
1360	1.353280e-04	2.330065e-02	
1361	1.354280e-04	2.330065e-02	
1362	1.355280e-04	2.330065e-02	
1363	1.356280e-04	2.330065e-02	
1364	1.357280e-04	2.330065e-02	
1365	1.358280e-04	2.330065e-02	
1366	1.359280e-04	2.330065e-02	
1367	1.360280e-04	2.330065e-02	
1368	1.361280e-04	2.330065e-02	
1369	1.362280e-04	2.330065e-02	
1370	1.363280e-04	2.330065e-02	
1371	1.364280e-04	2.330065e-02	
1372	1.365280e-04	2.330065e-02	
1373	1.366280e-04	2.330065e-02	
1374	1.367280e-04	2.330065e-02	
1375	1.368280e-04	2.330065e-02	
1376	1.369280e-04	2.330065e-02	
1377	1.370280e-04	2.330065e-02	
1378	1.371280e-04	2.330065e-02	
1379	1.372280e-04	2.330065e-02	
1380	1.373280e-04	2.330065e-02	
1381	1.374280e-04	2.330065e-02	
1382	1.375280e-04	2.330065e-02	
1383	1.376280e-04	2.330065e-02	
1384	1.377280e-04	2.330065e-02	
1385	1.378280e-04	2.330065e-02	
1386	1.379280e-04	2.330065e-02	
1387	1.380280e-04	2.330065e-02	
1388	1.381280e-04	2.330065e-02	

Index   time            v(5)            
--------------------------------------------------------------------------------
1389	1.382280e-04	2.330065e-02	
1390	1.383280e-04	2.330065e-02	
1391	1.384280e-04	2.330065e-02	
1392	1.385280e-04	2.330065e-02	
1393	1.386280e-04	2.330065e-02	
1394	1.387280e-04	2.330065e-02	
1395	1.388280e-04	2.330065e-02	
1396	1.389280e-04	2.330065e-02	
1397	1.390280e-04	2.330065e-02	
1398	1.391280e-04	2.330065e-02	
1399	1.392280e-04	2.330065e-02	
1400	1.393280e-04	2.330065e-02	
1401	1.394280e-04	2.330065e-02	
1402	1.395280e-04	2.330065e-02	
1403	1.396280e-04	2.330065e-02	
1404	1.397280e-04	2.330065e-02	
1405	1.398280e-04	2.330065e-02	
1406	1.399280e-04	2.330065e-02	
1407	1.400280e-04	2.330065e-02	
1408	1.401280e-04	2.330065e-02	
1409	1.402280e-04	2.330065e-02	
1410	1.403280e-04	2.330065e-02	
1411	1.404280e-04	2.330065e-02	
1412	1.405280e-04	2.330065e-02	
1413	1.406280e-04	2.330065e-02	
1414	1.407280e-04	2.330065e-02	
1415	1.408280e-04	2.330065e-02	
1416	1.409280e-04	2.330065e-02	
1417	1.410280e-04	2.330065e-02	
1418	1.411280e-04	2.330065e-02	
1419	1.412280e-04	2.330065e-02	
1420	1.413280e-04	2.330065e-02	
1421	1.414280e-04	2.330065e-02	
1422	1.415280e-04	2.330065e-02	
1423	1.416280e-04	2.330065e-02	
1424	1.417280e-04	2.330065e-02	
1425	1.418280e-04	2.330065e-02	
1426	1.419280e-04	2.330065e-02	
1427	1.420280e-04	2.330065e-02	
1428	1.421280e-04	2.330065e-02	
1429	1.422280e-04	2.330065e-02	
1430	1.423280e-04	2.330065e-02	
1431	1.424280e-04	2.330065e-02	
1432	1.425280e-04	2.330065e-02	
1433	1.426280e-04	2.330065e-02	
1434	1.427280e-04	2.330065e-02	
1435	1.428280e-04	2.330065e-02	
1436	1.429280e-04	2.330065e-02	
1437	1.430280e-04	2.330065e-02	
1438	1.431280e-04	2.330065e-02	
1439	1.432280e-04	2.330065e-02	
1440	1.433280e-04	2.330065e-02	
1441	1.434280e-04	2.330065e-02	
1442	1.435280e-04	2.330065e-02	
1443	1.436280e-04	2.330065e-02	
1444	1.437280e-04	2.330065e-02	
1445	1.438280e-04	2.330065e-02	
1446	1.439280e-04	2.330065e-02	

Index   time            v(5)            
--------------------------------------------------------------------------------
1447	1.440280e-04	2.330065e-02	
1448	1.441280e-04	2.330065e-02	
1449	1.442280e-04	2.330065e-02	
1450	1.443280e-04	2.330065e-02	
1451	1.444280e-04	2.330065e-02	
1452	1.445280e-04	2.330065e-02	
1453	1.446280e-04	2.330065e-02	
1454	1.447280e-04	2.330065e-02	
1455	1.448280e-04	2.330065e-02	
1456	1.449280e-04	2.330065e-02	
1457	1.450280e-04	2.330065e-02	
1458	1.451280e-04	2.330065e-02	
1459	1.452280e-04	2.330065e-02	
1460	1.453280e-04	2.330065e-02	
1461	1.454280e-04	2.330065e-02	
1462	1.455280e-04	2.330065e-02	
1463	1.456280e-04	2.330065e-02	
1464	1.457280e-04	2.330065e-02	
1465	1.458280e-04	2.330065e-02	
1466	1.459280e-04	2.330065e-02	
1467	1.460280e-04	2.330065e-02	
1468	1.461280e-04	2.330065e-02	
1469	1.462280e-04	2.330065e-02	
1470	1.463280e-04	2.330065e-02	
1471	1.464280e-04	2.330065e-02	
1472	1.465280e-04	2.330065e-02	
1473	1.466280e-04	2.330065e-02	
1474	1.467280e-04	2.330065e-02	
1475	1.468280e-04	2.330065e-02	
1476	1.469280e-04	2.330065e-02	
1477	1.470280e-04	2.330065e-02	
1478	1.471280e-04	2.330065e-02	
1479	1.472280e-04	2.330065e-02	
1480	1.473280e-04	2.330065e-02	
1481	1.474280e-04	2.330065e-02	
1482	1.475280e-04	2.330065e-02	
1483	1.476280e-04	2.330065e-02	
1484	1.477280e-04	2.330065e-02	
1485	1.478280e-04	2.330065e-02	
1486	1.479280e-04	2.330065e-02	
1487	1.480280e-04	2.330065e-02	
1488	1.481280e-04	2.330065e-02	
1489	1.482280e-04	2.330065e-02	
1490	1.483280e-04	2.330065e-02	
1491	1.484280e-04	2.330065e-02	
1492	1.485280e-04	2.330065e-02	
1493	1.486280e-04	2.330065e-02	
1494	1.487280e-04	2.330065e-02	
1495	1.488280e-04	2.330065e-02	
1496	1.489280e-04	2.330065e-02	
1497	1.490280e-04	2.330065e-02	
1498	1.491280e-04	2.330065e-02	
1499	1.492280e-04	2.330065e-02	
1500	1.493280e-04	2.330065e-02	
1501	1.494280e-04	2.330065e-02	
1502	1.495280e-04	2.330065e-02	
1503	1.496280e-04	2.330065e-02	
1504	1.497280e-04	2.330065e-02	

Index   time            v(5)            
--------------------------------------------------------------------------------
1505	1.498280e-04	2.330065e-02	
1506	1.499280e-04	2.330065e-02	
1507	1.500280e-04	2.330065e-02	
1508	1.501280e-04	2.330065e-02	
1509	1.502280e-04	2.330065e-02	
1510	1.503280e-04	2.330065e-02	
1511	1.504280e-04	2.330065e-02	
1512	1.505280e-04	2.330065e-02	
1513	1.506280e-04	2.330065e-02	
1514	1.507280e-04	2.330065e-02	
1515	1.508280e-04	2.330065e-02	
1516	1.509280e-04	2.330065e-02	
1517	1.510280e-04	2.330065e-02	
1518	1.511280e-04	2.330065e-02	
1519	1.512280e-04	2.330065e-02	
1520	1.513280e-04	2.330065e-02	
1521	1.514280e-04	2.330065e-02	
1522	1.515280e-04	2.330065e-02	
1523	1.516280e-04	2.330065e-02	
1524	1.517280e-04	2.330065e-02	
1525	1.518280e-04	2.330065e-02	
1526	1.519280e-04	2.330065e-02	
1527	1.520280e-04	2.330065e-02	
1528	1.521280e-04	2.330065e-02	
1529	1.522280e-04	2.330065e-02	
1530	1.523280e-04	2.330065e-02	
1531	1.524280e-04	2.330065e-02	
1532	1.525280e-04	2.330065e-02	
1533	1.526280e-04	2.330065e-02	
1534	1.527280e-04	2.330065e-02	
1535	1.528280e-04	2.330065e-02	
1536	1.529280e-04	2.330065e-02	
1537	1.530280e-04	2.330065e-02	
1538	1.531280e-04	2.330065e-02	
1539	1.532280e-04	2.330065e-02	
1540	1.533280e-04	2.330065e-02	
1541	1.534280e-04	2.330065e-02	
1542	1.535280e-04	2.330065e-02	
1543	1.536280e-04	2.330065e-02	
1544	1.537280e-04	2.330065e-02	
1545	1.538280e-04	2.330065e-02	
1546	1.539280e-04	2.330065e-02	
1547	1.540280e-04	2.330065e-02	
1548	1.541280e-04	2.330065e-02	
1549	1.542280e-04	2.330065e-02	
1550	1.543280e-04	2.330065e-02	
1551	1.544280e-04	2.330065e-02	
1552	1.545280e-04	2.330065e-02	
1553	1.546280e-04	2.330065e-02	
1554	1.547280e-04	2.330065e-02	
1555	1.548280e-04	2.330065e-02	
1556	1.549280e-04	2.330065e-02	
1557	1.550280e-04	2.330065e-02	
1558	1.551280e-04	2.330065e-02	
1559	1.552280e-04	2.330065e-02	
1560	1.553280e-04	2.330065e-02	
1561	1.554280e-04	2.330065e-02	
1562	1.555280e-04	2.330065e-02	

Index   time            v(5)            
--------------------------------------------------------------------------------
1563	1.556280e-04	2.330065e-02	
1564	1.557280e-04	2.330065e-02	
1565	1.558280e-04	2.330065e-02	
1566	1.559280e-04	2.330065e-02	
1567	1.560280e-04	2.330065e-02	
1568	1.561280e-04	2.330065e-02	
1569	1.562280e-04	2.330065e-02	
1570	1.563280e-04	2.330065e-02	
1571	1.564280e-04	2.330065e-02	
1572	1.565280e-04	2.330065e-02	
1573	1.566280e-04	2.330065e-02	
1574	1.567280e-04	2.330065e-02	
1575	1.568280e-04	2.330065e-02	
1576	1.569280e-04	2.330065e-02	
1577	1.570280e-04	2.330065e-02	
1578	1.571280e-04	2.330065e-02	
1579	1.572280e-04	2.330065e-02	
1580	1.573280e-04	2.330065e-02	
1581	1.574280e-04	2.330065e-02	
1582	1.575280e-04	2.330065e-02	
1583	1.576280e-04	2.330065e-02	
1584	1.577280e-04	2.330065e-02	
1585	1.578280e-04	2.330065e-02	
1586	1.579280e-04	2.330065e-02	
1587	1.580280e-04	2.330065e-02	
1588	1.581280e-04	2.330065e-02	
1589	1.582280e-04	2.330065e-02	
1590	1.583280e-04	2.330065e-02	
1591	1.584280e-04	2.330065e-02	
1592	1.585280e-04	2.330065e-02	
1593	1.586280e-04	2.330065e-02	
1594	1.587280e-04	2.330065e-02	
1595	1.588280e-04	2.330065e-02	
1596	1.589280e-04	2.330065e-02	
1597	1.590280e-04	2.330065e-02	
1598	1.591280e-04	2.330065e-02	
1599	1.592280e-04	2.330065e-02	
1600	1.593280e-04	2.330065e-02	
1601	1.594280e-04	2.330065e-02	
1602	1.595280e-04	2.330065e-02	
1603	1.596280e-04	2.330065e-02	
1604	1.597280e-04	2.330065e-02	
1605	1.598280e-04	2.330065e-02	
1606	1.599280e-04	2.330065e-02	
1607	1.600280e-04	2.330065e-02	
1608	1.601280e-04	2.330065e-02	
1609	1.602280e-04	2.330065e-02	
1610	1.603280e-04	2.330065e-02	
1611	1.604280e-04	2.330065e-02	
1612	1.605280e-04	2.330065e-02	
1613	1.606280e-04	2.330065e-02	
1614	1.607280e-04	2.330065e-02	
1615	1.608280e-04	2.330065e-02	
1616	1.609280e-04	2.330065e-02	
1617	1.610280e-04	2.330065e-02	
1618	1.611280e-04	2.330065e-02	
1619	1.612280e-04	2.330065e-02	
1620	1.613280e-04	2.330065e-02	

Index   time            v(5)            
--------------------------------------------------------------------------------
1621	1.614280e-04	2.330065e-02	
1622	1.615280e-04	2.330065e-02	
1623	1.616280e-04	2.330065e-02	
1624	1.617280e-04	2.330065e-02	
1625	1.618280e-04	2.330065e-02	
1626	1.619280e-04	2.330065e-02	
1627	1.620280e-04	2.330065e-02	
1628	1.621280e-04	2.330065e-02	
1629	1.622280e-04	2.330065e-02	
1630	1.623280e-04	2.330065e-02	
1631	1.624280e-04	2.330065e-02	
1632	1.625280e-04	2.330065e-02	
1633	1.626280e-04	2.330065e-02	
1634	1.627280e-04	2.330065e-02	
1635	1.628280e-04	2.330065e-02	
1636	1.629280e-04	2.330065e-02	
1637	1.630280e-04	2.330065e-02	
1638	1.631280e-04	2.330065e-02	
1639	1.632280e-04	2.330065e-02	
1640	1.633280e-04	2.330065e-02	
1641	1.634280e-04	2.330065e-02	
1642	1.635280e-04	2.330065e-02	
1643	1.636280e-04	2.330065e-02	
1644	1.637280e-04	2.330065e-02	
1645	1.638280e-04	2.330065e-02	
1646	1.639280e-04	2.330065e-02	
1647	1.640280e-04	2.330065e-02	
1648	1.641280e-04	2.330065e-02	
1649	1.642280e-04	2.330065e-02	
1650	1.643280e-04	2.330065e-02	
1651	1.644280e-04	2.330065e-02	
1652	1.645280e-04	2.330065e-02	
1653	1.646280e-04	2.330065e-02	
1654	1.647280e-04	2.330065e-02	
1655	1.648280e-04	2.330065e-02	
1656	1.649280e-04	2.330065e-02	
1657	1.650280e-04	2.330065e-02	
1658	1.651280e-04	2.330065e-02	
1659	1.652280e-04	2.330065e-02	
1660	1.653280e-04	2.330065e-02	
1661	1.654280e-04	2.330065e-02	
1662	1.655280e-04	2.330065e-02	
1663	1.656280e-04	2.330065e-02	
1664	1.657280e-04	2.330065e-02	
1665	1.658280e-04	2.330065e-02	
1666	1.659280e-04	2.330065e-02	
1667	1.660280e-04	2.330065e-02	
1668	1.661280e-04	2.330065e-02	
1669	1.662280e-04	2.330065e-02	
1670	1.663280e-04	2.330065e-02	
1671	1.664280e-04	2.330065e-02	
1672	1.665280e-04	2.330065e-02	
1673	1.666280e-04	2.330065e-02	
1674	1.667280e-04	2.330065e-02	
1675	1.668280e-04	2.330065e-02	
1676	1.669280e-04	2.330065e-02	
1677	1.670280e-04	2.330065e-02	
1678	1.671280e-04	2.330065e-02	

Index   time            v(5)            
--------------------------------------------------------------------------------
1679	1.672280e-04	2.330065e-02	
1680	1.673280e-04	2.330065e-02	
1681	1.674280e-04	2.330065e-02	
1682	1.675280e-04	2.330065e-02	
1683	1.676280e-04	2.330065e-02	
1684	1.677280e-04	2.330065e-02	
1685	1.678280e-04	2.330065e-02	
1686	1.679280e-04	2.330065e-02	
1687	1.680280e-04	2.330065e-02	
1688	1.681280e-04	2.330065e-02	
1689	1.682280e-04	2.330065e-02	
1690	1.683280e-04	2.330065e-02	
1691	1.684280e-04	2.330065e-02	
1692	1.685280e-04	2.330065e-02	
1693	1.686280e-04	2.330065e-02	
1694	1.687280e-04	2.330065e-02	
1695	1.688280e-04	2.330065e-02	
1696	1.689280e-04	2.330065e-02	
1697	1.690280e-04	2.330065e-02	
1698	1.691280e-04	2.330065e-02	
1699	1.692280e-04	2.330065e-02	
1700	1.693280e-04	2.330065e-02	
1701	1.694280e-04	2.330065e-02	
1702	1.695280e-04	2.330065e-02	
1703	1.696280e-04	2.330065e-02	
1704	1.697280e-04	2.330065e-02	
1705	1.698280e-04	2.330065e-02	
1706	1.699280e-04	2.330065e-02	
1707	1.700280e-04	2.330065e-02	
1708	1.701280e-04	2.330065e-02	
1709	1.702280e-04	2.330065e-02	
1710	1.703280e-04	2.330065e-02	
1711	1.704280e-04	2.330065e-02	
1712	1.705280e-04	2.330065e-02	
1713	1.706280e-04	2.330065e-02	
1714	1.707280e-04	2.330065e-02	
1715	1.708280e-04	2.330065e-02	
1716	1.709280e-04	2.330065e-02	
1717	1.710280e-04	2.330065e-02	
1718	1.711280e-04	2.330065e-02	
1719	1.712280e-04	2.330065e-02	
1720	1.713280e-04	2.330065e-02	
1721	1.714280e-04	2.330065e-02	
1722	1.715280e-04	2.330065e-02	
1723	1.716280e-04	2.330065e-02	
1724	1.717280e-04	2.330065e-02	
1725	1.718280e-04	2.330065e-02	
1726	1.719280e-04	2.330065e-02	
1727	1.720280e-04	2.330065e-02	
1728	1.721280e-04	2.330065e-02	
1729	1.722280e-04	2.330065e-02	
1730	1.723280e-04	2.330065e-02	
1731	1.724280e-04	2.330065e-02	
1732	1.725280e-04	2.330065e-02	
1733	1.726280e-04	2.330065e-02	
1734	1.727280e-04	2.330065e-02	
1735	1.728280e-04	2.330065e-02	
1736	1.729280e-04	2.330065e-02	

Index   time            v(5)            
--------------------------------------------------------------------------------
1737	1.730280e-04	2.330065e-02	
1738	1.731280e-04	2.330065e-02	
1739	1.732280e-04	2.330065e-02	
1740	1.733280e-04	2.330065e-02	
1741	1.734280e-04	2.330065e-02	
1742	1.735280e-04	2.330065e-02	
1743	1.736280e-04	2.330065e-02	
1744	1.737280e-04	2.330065e-02	
1745	1.738280e-04	2.330065e-02	
1746	1.739280e-04	2.330065e-02	
1747	1.740280e-04	2.330065e-02	
1748	1.741280e-04	2.330065e-02	
1749	1.742280e-04	2.330065e-02	
1750	1.743280e-04	2.330065e-02	
1751	1.744280e-04	2.330065e-02	
1752	1.745280e-04	2.330065e-02	
1753	1.746280e-04	2.330065e-02	
1754	1.747280e-04	2.330065e-02	
1755	1.748280e-04	2.330065e-02	
1756	1.749280e-04	2.330065e-02	
1757	1.750280e-04	2.330065e-02	
1758	1.751280e-04	2.330065e-02	
1759	1.752280e-04	2.330065e-02	
1760	1.753280e-04	2.330065e-02	
1761	1.754280e-04	2.330065e-02	
1762	1.755280e-04	2.330065e-02	
1763	1.756280e-04	2.330065e-02	
1764	1.757280e-04	2.330065e-02	
1765	1.758280e-04	2.330065e-02	
1766	1.759280e-04	2.330065e-02	
1767	1.760280e-04	2.330065e-02	
1768	1.761280e-04	2.330065e-02	
1769	1.762280e-04	2.330065e-02	
1770	1.763280e-04	2.330065e-02	
1771	1.764280e-04	2.330065e-02	
1772	1.765280e-04	2.330065e-02	
1773	1.766280e-04	2.330065e-02	
1774	1.767280e-04	2.330065e-02	
1775	1.768280e-04	2.330065e-02	
1776	1.769280e-04	2.330065e-02	
1777	1.770280e-04	2.330065e-02	
1778	1.771280e-04	2.330065e-02	
1779	1.772280e-04	2.330065e-02	
1780	1.773280e-04	2.330065e-02	
1781	1.774280e-04	2.330065e-02	
1782	1.775280e-04	2.330065e-02	
1783	1.776280e-04	2.330065e-02	
1784	1.777280e-04	2.330065e-02	
1785	1.778280e-04	2.330065e-02	
1786	1.779280e-04	2.330065e-02	
1787	1.780280e-04	2.330065e-02	
1788	1.781280e-04	2.330065e-02	
1789	1.782280e-04	2.330065e-02	
1790	1.783280e-04	2.330065e-02	
1791	1.784280e-04	2.330065e-02	
1792	1.785280e-04	2.330065e-02	
1793	1.786280e-04	2.330065e-02	
1794	1.787280e-04	2.330065e-02	

Index   time            v(5)            
--------------------------------------------------------------------------------
1795	1.788280e-04	2.330065e-02	
1796	1.789280e-04	2.330065e-02	
1797	1.790280e-04	2.330065e-02	
1798	1.791280e-04	2.330065e-02	
1799	1.792280e-04	2.330065e-02	
1800	1.793280e-04	2.330065e-02	
1801	1.794280e-04	2.330065e-02	
1802	1.795280e-04	2.330065e-02	
1803	1.796280e-04	2.330065e-02	
1804	1.797280e-04	2.330065e-02	
1805	1.798280e-04	2.330065e-02	
1806	1.799280e-04	2.330065e-02	
1807	1.800280e-04	2.330065e-02	
1808	1.801280e-04	2.330065e-02	
1809	1.802280e-04	2.330065e-02	
1810	1.803280e-04	2.330065e-02	
1811	1.804280e-04	2.330065e-02	
1812	1.805280e-04	2.330065e-02	
1813	1.806280e-04	2.330065e-02	
1814	1.807280e-04	2.330065e-02	
1815	1.808280e-04	2.330065e-02	
1816	1.809280e-04	2.330065e-02	
1817	1.810280e-04	2.330065e-02	
1818	1.811280e-04	2.330065e-02	
1819	1.812280e-04	2.330065e-02	
1820	1.813280e-04	2.330065e-02	
1821	1.814280e-04	2.330065e-02	
1822	1.815280e-04	2.330065e-02	
1823	1.816280e-04	2.330065e-02	
1824	1.817280e-04	2.330065e-02	
1825	1.818280e-04	2.330065e-02	
1826	1.819280e-04	2.330065e-02	
1827	1.820280e-04	2.330065e-02	
1828	1.821280e-04	2.330065e-02	
1829	1.822280e-04	2.330065e-02	
1830	1.823280e-04	2.330065e-02	
1831	1.824280e-04	2.330065e-02	
1832	1.825280e-04	2.330065e-02	
1833	1.826280e-04	2.330065e-02	
1834	1.827280e-04	2.330065e-02	
1835	1.828280e-04	2.330065e-02	
1836	1.829280e-04	2.330065e-02	
1837	1.830280e-04	2.330065e-02	
1838	1.831280e-04	2.330065e-02	
1839	1.832280e-04	2.330065e-02	
1840	1.833280e-04	2.330065e-02	
1841	1.834280e-04	2.330065e-02	
1842	1.835280e-04	2.330065e-02	
1843	1.836280e-04	2.330065e-02	
1844	1.837280e-04	2.330065e-02	
1845	1.838280e-04	2.330065e-02	
1846	1.839280e-04	2.330065e-02	
1847	1.840280e-04	2.330065e-02	
1848	1.841280e-04	2.330065e-02	
1849	1.842280e-04	2.330065e-02	
1850	1.843280e-04	2.330065e-02	
1851	1.844280e-04	2.330065e-02	
1852	1.845280e-04	2.330065e-02	

Index   time            v(5)            
--------------------------------------------------------------------------------
1853	1.846280e-04	2.330065e-02	
1854	1.847280e-04	2.330065e-02	
1855	1.848280e-04	2.330065e-02	
1856	1.849280e-04	2.330065e-02	
1857	1.850280e-04	2.330065e-02	
1858	1.851280e-04	2.330065e-02	
1859	1.852280e-04	2.330065e-02	
1860	1.853280e-04	2.330065e-02	
1861	1.854280e-04	2.330065e-02	
1862	1.855280e-04	2.330065e-02	
1863	1.856280e-04	2.330065e-02	
1864	1.857280e-04	2.330065e-02	
1865	1.858280e-04	2.330065e-02	
1866	1.859280e-04	2.330065e-02	
1867	1.860280e-04	2.330065e-02	
1868	1.861280e-04	2.330065e-02	
1869	1.862280e-04	2.330065e-02	
1870	1.863280e-04	2.330065e-02	
1871	1.864280e-04	2.330065e-02	
1872	1.865280e-04	2.330065e-02	
1873	1.866280e-04	2.330065e-02	
1874	1.867280e-04	2.330065e-02	
1875	1.868280e-04	2.330065e-02	
1876	1.869280e-04	2.330065e-02	
1877	1.870280e-04	2.330065e-02	
1878	1.871280e-04	2.330065e-02	
1879	1.872280e-04	2.330065e-02	
1880	1.873280e-04	2.330065e-02	
1881	1.874280e-04	2.330065e-02	
1882	1.875280e-04	2.330065e-02	
1883	1.876280e-04	2.330065e-02	
1884	1.877280e-04	2.330065e-02	
1885	1.878280e-04	2.330065e-02	
1886	1.879280e-04	2.330065e-02	
1887	1.880280e-04	2.330065e-02	
1888	1.881280e-04	2.330065e-02	
1889	1.882280e-04	2.330065e-02	
1890	1.883280e-04	2.330065e-02	
1891	1.884280e-04	2.330065e-02	
1892	1.885280e-04	2.330065e-02	
1893	1.886280e-04	2.330065e-02	
1894	1.887280e-04	2.330065e-02	
1895	1.888280e-04	2.330065e-02	
1896	1.889280e-04	2.330065e-02	
1897	1.890280e-04	2.330065e-02	
1898	1.891280e-04	2.330065e-02	
1899	1.892280e-04	2.330065e-02	
1900	1.893280e-04	2.330065e-02	
1901	1.894280e-04	2.330065e-02	
1902	1.895280e-04	2.330065e-02	
1903	1.896280e-04	2.330065e-02	
1904	1.897280e-04	2.330065e-02	
1905	1.898280e-04	2.330065e-02	
1906	1.899280e-04	2.330065e-02	
1907	1.900280e-04	2.330065e-02	
1908	1.901280e-04	2.330065e-02	
1909	1.902280e-04	2.330065e-02	
1910	1.903280e-04	2.330065e-02	

Index   time            v(5)            
--------------------------------------------------------------------------------
1911	1.904280e-04	2.330065e-02	
1912	1.905280e-04	2.330065e-02	
1913	1.906280e-04	2.330065e-02	
1914	1.907280e-04	2.330065e-02	
1915	1.908280e-04	2.330065e-02	
1916	1.909280e-04	2.330065e-02	
1917	1.910280e-04	2.330065e-02	
1918	1.911280e-04	2.330065e-02	
1919	1.912280e-04	2.330065e-02	
1920	1.913280e-04	2.330065e-02	
1921	1.914280e-04	2.330065e-02	
1922	1.915280e-04	2.330065e-02	
1923	1.916280e-04	2.330065e-02	
1924	1.917280e-04	2.330065e-02	
1925	1.918280e-04	2.330065e-02	
1926	1.919280e-04	2.330065e-02	
1927	1.920280e-04	2.330065e-02	
1928	1.921280e-04	2.330065e-02	
1929	1.922280e-04	2.330065e-02	
1930	1.923280e-04	2.330065e-02	
1931	1.924280e-04	2.330065e-02	
1932	1.925280e-04	2.330065e-02	
1933	1.926280e-04	2.330065e-02	
1934	1.927280e-04	2.330065e-02	
1935	1.928280e-04	2.330065e-02	
1936	1.929280e-04	2.330065e-02	
1937	1.930280e-04	2.330065e-02	
1938	1.931280e-04	2.330065e-02	
1939	1.932280e-04	2.330065e-02	
1940	1.933280e-04	2.330065e-02	
1941	1.934280e-04	2.330065e-02	
1942	1.935280e-04	2.330065e-02	
1943	1.936280e-04	2.330065e-02	
1944	1.937280e-04	2.330065e-02	
1945	1.938280e-04	2.330065e-02	
1946	1.939280e-04	2.330065e-02	
1947	1.940280e-04	2.330065e-02	
1948	1.941280e-04	2.330065e-02	
1949	1.942280e-04	2.330065e-02	
1950	1.943280e-04	2.330065e-02	
1951	1.944280e-04	2.330065e-02	
1952	1.945280e-04	2.330065e-02	
1953	1.946280e-04	2.330065e-02	
1954	1.947280e-04	2.330065e-02	
1955	1.948280e-04	2.330065e-02	
1956	1.949280e-04	2.330065e-02	
1957	1.950280e-04	2.330065e-02	
1958	1.951280e-04	2.330065e-02	
1959	1.952280e-04	2.330065e-02	
1960	1.953280e-04	2.330065e-02	
1961	1.954280e-04	2.330065e-02	
1962	1.955280e-04	2.330065e-02	
1963	1.956280e-04	2.330065e-02	
1964	1.957280e-04	2.330065e-02	
1965	1.958280e-04	2.330065e-02	
1966	1.959280e-04	2.330065e-02	
1967	1.960280e-04	2.330065e-02	
1968	1.961280e-04	2.330065e-02	

Index   time            v(5)            
--------------------------------------------------------------------------------
1969	1.962280e-04	2.330065e-02	
1970	1.963280e-04	2.330065e-02	
1971	1.964280e-04	2.330065e-02	
1972	1.965280e-04	2.330065e-02	
1973	1.966280e-04	2.330065e-02	
1974	1.967280e-04	2.330065e-02	
1975	1.968280e-04	2.330065e-02	
1976	1.969280e-04	2.330065e-02	
1977	1.970280e-04	2.330065e-02	
1978	1.971280e-04	2.330065e-02	
1979	1.972280e-04	2.330065e-02	
1980	1.973280e-04	2.330065e-02	
1981	1.974280e-04	2.330065e-02	
1982	1.975280e-04	2.330065e-02	
1983	1.976280e-04	2.330065e-02	
1984	1.977280e-04	2.330065e-02	
1985	1.978280e-04	2.330065e-02	
1986	1.979280e-04	2.330065e-02	
1987	1.980280e-04	2.330065e-02	
1988	1.981280e-04	2.330065e-02	
1989	1.982280e-04	2.330065e-02	
1990	1.983280e-04	2.330065e-02	
1991	1.984280e-04	2.330065e-02	
1992	1.985280e-04	2.330065e-02	
1993	1.986280e-04	2.330065e-02	
1994	1.987280e-04	2.330065e-02	
1995	1.988280e-04	2.330065e-02	
1996	1.989280e-04	2.330065e-02	
1997	1.990280e-04	2.330065e-02	
1998	1.991280e-04	2.330065e-02	
1999	1.992280e-04	2.330065e-02	
2000	1.993280e-04	2.330065e-02	
2001	1.994280e-04	2.330065e-02	
2002	1.995280e-04	2.330065e-02	
2003	1.996280e-04	2.330065e-02	
2004	1.997280e-04	2.330065e-02	
2005	1.998280e-04	2.330065e-02	
2006	1.999280e-04	2.330065e-02	
2007	2.000280e-04	2.330065e-02	
2008	2.001280e-04	2.330065e-02	
2009	2.002280e-04	2.330065e-02	
2010	2.003280e-04	2.330065e-02	
2011	2.004280e-04	2.330065e-02	
2012	2.005280e-04	2.330065e-02	
2013	2.006280e-04	2.330065e-02	
2014	2.007280e-04	2.330065e-02	
2015	2.008280e-04	2.330065e-02	
2016	2.009280e-04	2.330065e-02	
2017	2.010280e-04	2.330065e-02	
2018	2.011280e-04	2.330065e-02	
2019	2.012280e-04	2.330065e-02	
2020	2.013280e-04	2.330065e-02	
2021	2.014280e-04	2.330065e-02	
2022	2.015280e-04	2.330065e-02	
2023	2.016280e-04	2.330065e-02	
2024	2.017280e-04	2.330065e-02	
2025	2.018280e-04	2.330065e-02	
2026	2.019280e-04	2.330065e-02	

Index   time            v(5)            
--------------------------------------------------------------------------------
2027	2.020280e-04	2.330065e-02	
2028	2.021280e-04	2.330065e-02	
2029	2.022280e-04	2.330065e-02	
2030	2.023280e-04	2.330065e-02	
2031	2.024280e-04	2.330065e-02	
2032	2.025280e-04	2.330065e-02	
2033	2.026280e-04	2.330065e-02	
2034	2.027280e-04	2.330065e-02	
2035	2.028280e-04	2.330065e-02	
2036	2.029280e-04	2.330065e-02	
2037	2.030280e-04	2.330065e-02	
2038	2.031280e-04	2.330065e-02	
2039	2.032280e-04	2.330065e-02	
2040	2.033280e-04	2.330065e-02	
2041	2.034280e-04	2.330065e-02	
2042	2.035280e-04	2.330065e-02	
2043	2.036280e-04	2.330065e-02	
2044	2.037280e-04	2.330065e-02	
2045	2.038280e-04	2.330065e-02	
2046	2.039280e-04	2.330065e-02	
2047	2.040280e-04	2.330065e-02	
2048	2.041280e-04	2.330065e-02	
2049	2.042280e-04	2.330065e-02	
2050	2.043280e-04	2.330065e-02	
2051	2.044280e-04	2.330065e-02	
2052	2.045280e-04	2.330065e-02	
2053	2.046280e-04	2.330065e-02	
2054	2.047280e-04	2.330065e-02	
2055	2.048280e-04	2.330065e-02	
2056	2.049280e-04	2.330065e-02	
2057	2.050280e-04	2.330065e-02	
2058	2.051280e-04	2.330065e-02	
2059	2.052280e-04	2.330065e-02	
2060	2.053280e-04	2.330065e-02	
2061	2.054280e-04	2.330065e-02	
2062	2.055280e-04	2.330065e-02	
2063	2.056280e-04	2.330065e-02	
2064	2.057280e-04	2.330065e-02	
2065	2.058280e-04	2.330065e-02	
2066	2.059280e-04	2.330065e-02	
2067	2.060280e-04	2.330065e-02	
2068	2.061280e-04	2.330065e-02	
2069	2.062280e-04	2.330065e-02	
2070	2.063280e-04	2.330065e-02	
2071	2.064280e-04	2.330065e-02	
2072	2.065280e-04	2.330065e-02	
2073	2.066280e-04	2.330065e-02	
2074	2.067280e-04	2.330065e-02	
2075	2.068280e-04	2.330065e-02	
2076	2.069280e-04	2.330065e-02	
2077	2.070280e-04	2.330065e-02	
2078	2.071280e-04	2.330065e-02	
2079	2.072280e-04	2.330065e-02	
2080	2.073280e-04	2.330065e-02	
2081	2.074280e-04	2.330065e-02	
2082	2.075280e-04	2.330065e-02	
2083	2.076280e-04	2.330065e-02	
2084	2.077280e-04	2.330065e-02	

Index   time            v(5)            
--------------------------------------------------------------------------------
2085	2.078280e-04	2.330065e-02	
2086	2.079280e-04	2.330065e-02	
2087	2.080280e-04	2.330065e-02	
2088	2.081280e-04	2.330065e-02	
2089	2.082280e-04	2.330065e-02	
2090	2.083280e-04	2.330065e-02	
2091	2.084280e-04	2.330065e-02	
2092	2.085280e-04	2.330065e-02	
2093	2.086280e-04	2.330065e-02	
2094	2.087280e-04	2.330065e-02	
2095	2.088280e-04	2.330065e-02	
2096	2.089280e-04	2.330065e-02	
2097	2.090280e-04	2.330065e-02	
2098	2.091280e-04	2.330065e-02	
2099	2.092280e-04	2.330065e-02	
2100	2.093280e-04	2.330065e-02	
2101	2.094280e-04	2.330065e-02	
2102	2.095280e-04	2.330065e-02	
2103	2.096280e-04	2.330065e-02	
2104	2.097280e-04	2.330065e-02	
2105	2.098280e-04	2.330065e-02	
2106	2.099280e-04	2.330065e-02	
2107	2.100280e-04	2.330065e-02	
2108	2.101280e-04	2.330065e-02	
2109	2.102280e-04	2.330065e-02	
2110	2.103280e-04	2.330065e-02	
2111	2.104280e-04	2.330065e-02	
2112	2.105280e-04	2.330065e-02	
2113	2.106280e-04	2.330065e-02	
2114	2.107280e-04	2.330065e-02	
2115	2.108280e-04	2.330065e-02	
2116	2.109280e-04	2.330065e-02	
2117	2.110280e-04	2.330065e-02	
2118	2.111280e-04	2.330065e-02	
2119	2.112280e-04	2.330065e-02	
2120	2.113280e-04	2.330065e-02	
2121	2.114280e-04	2.330065e-02	
2122	2.115280e-04	2.330065e-02	
2123	2.116280e-04	2.330065e-02	
2124	2.117280e-04	2.330065e-02	
2125	2.118280e-04	2.330065e-02	
2126	2.119280e-04	2.330065e-02	
2127	2.120280e-04	2.330065e-02	
2128	2.121280e-04	2.330065e-02	
2129	2.122280e-04	2.330065e-02	
2130	2.123280e-04	2.330065e-02	
2131	2.124280e-04	2.330065e-02	
2132	2.125280e-04	2.330065e-02	
2133	2.126280e-04	2.330065e-02	
2134	2.127280e-04	2.330065e-02	
2135	2.128280e-04	2.330065e-02	
2136	2.129280e-04	2.330065e-02	
2137	2.130280e-04	2.330065e-02	
2138	2.131280e-04	2.330065e-02	
2139	2.132280e-04	2.330065e-02	
2140	2.133280e-04	2.330065e-02	
2141	2.134280e-04	2.330065e-02	
2142	2.135280e-04	2.330065e-02	

Index   time            v(5)            
--------------------------------------------------------------------------------
2143	2.136280e-04	2.330065e-02	
2144	2.137280e-04	2.330065e-02	
2145	2.138280e-04	2.330065e-02	
2146	2.139280e-04	2.330065e-02	
2147	2.140280e-04	2.330065e-02	
2148	2.141280e-04	2.330065e-02	
2149	2.142280e-04	2.330065e-02	
2150	2.143280e-04	2.330065e-02	
2151	2.144280e-04	2.330065e-02	
2152	2.145280e-04	2.330065e-02	
2153	2.146280e-04	2.330065e-02	
2154	2.147280e-04	2.330065e-02	
2155	2.148280e-04	2.330065e-02	
2156	2.149280e-04	2.330065e-02	
2157	2.150280e-04	2.330065e-02	
2158	2.151280e-04	2.330065e-02	
2159	2.152280e-04	2.330065e-02	
2160	2.153280e-04	2.330065e-02	
2161	2.154280e-04	2.330065e-02	
2162	2.155280e-04	2.330065e-02	
2163	2.156280e-04	2.330065e-02	
2164	2.157280e-04	2.330065e-02	
2165	2.158280e-04	2.330065e-02	
2166	2.159280e-04	2.330065e-02	
2167	2.160280e-04	2.330065e-02	
2168	2.161280e-04	2.330065e-02	
2169	2.162280e-04	2.330065e-02	
2170	2.163280e-04	2.330065e-02	
2171	2.164280e-04	2.330065e-02	
2172	2.165280e-04	2.330065e-02	
2173	2.166280e-04	2.330065e-02	
2174	2.167280e-04	2.330065e-02	
2175	2.168280e-04	2.330065e-02	
2176	2.169280e-04	2.330065e-02	
2177	2.170280e-04	2.330065e-02	
2178	2.171280e-04	2.330065e-02	
2179	2.172280e-04	2.330065e-02	
2180	2.173280e-04	2.330065e-02	
2181	2.174280e-04	2.330065e-02	
2182	2.175280e-04	2.330065e-02	
2183	2.176280e-04	2.330065e-02	
2184	2.177280e-04	2.330065e-02	
2185	2.178280e-04	2.330065e-02	
2186	2.179280e-04	2.330065e-02	
2187	2.180280e-04	2.330065e-02	
2188	2.181280e-04	2.330065e-02	
2189	2.182280e-04	2.330065e-02	
2190	2.183280e-04	2.330065e-02	
2191	2.184280e-04	2.330065e-02	
2192	2.185280e-04	2.330065e-02	
2193	2.186280e-04	2.330065e-02	
2194	2.187280e-04	2.330065e-02	
2195	2.188280e-04	2.330065e-02	
2196	2.189280e-04	2.330065e-02	
2197	2.190280e-04	2.330065e-02	
2198	2.191280e-04	2.330065e-02	
2199	2.192280e-04	2.330065e-02	
2200	2.193280e-04	2.330065e-02	

Index   time            v(5)            
--------------------------------------------------------------------------------
2201	2.194280e-04	2.330065e-02	
2202	2.195280e-04	2.330065e-02	
2203	2.196280e-04	2.330065e-02	
2204	2.197280e-04	2.330065e-02	
2205	2.198280e-04	2.330065e-02	
2206	2.199280e-04	2.330065e-02	
2207	2.200280e-04	2.330065e-02	
2208	2.201280e-04	2.330065e-02	
2209	2.202280e-04	2.330065e-02	
2210	2.203280e-04	2.330065e-02	
2211	2.204280e-04	2.330065e-02	
2212	2.205280e-04	2.330065e-02	
2213	2.206280e-04	2.330065e-02	
2214	2.207280e-04	2.330065e-02	
2215	2.208280e-04	2.330065e-02	
2216	2.209280e-04	2.330065e-02	
2217	2.210280e-04	2.330065e-02	
2218	2.211280e-04	2.330065e-02	
2219	2.212280e-04	2.330065e-02	
2220	2.213280e-04	2.330065e-02	
2221	2.214280e-04	2.330065e-02	
2222	2.215280e-04	2.330065e-02	
2223	2.216280e-04	2.330065e-02	
2224	2.217280e-04	2.330065e-02	
2225	2.218280e-04	2.330065e-02	
2226	2.219280e-04	2.330065e-02	
2227	2.220280e-04	2.330065e-02	
2228	2.221280e-04	2.330065e-02	
2229	2.222280e-04	2.330065e-02	
2230	2.223280e-04	2.330065e-02	
2231	2.224280e-04	2.330065e-02	
2232	2.225280e-04	2.330065e-02	
2233	2.226280e-04	2.330065e-02	
2234	2.227280e-04	2.330065e-02	
2235	2.228280e-04	2.330065e-02	
2236	2.229280e-04	2.330065e-02	
2237	2.230280e-04	2.330065e-02	
2238	2.231280e-04	2.330065e-02	
2239	2.232280e-04	2.330065e-02	
2240	2.233280e-04	2.330065e-02	
2241	2.234280e-04	2.330065e-02	
2242	2.235280e-04	2.330065e-02	
2243	2.236280e-04	2.330065e-02	
2244	2.237280e-04	2.330065e-02	
2245	2.238280e-04	2.330065e-02	
2246	2.239280e-04	2.330065e-02	
2247	2.240280e-04	2.330065e-02	
2248	2.241280e-04	2.330065e-02	
2249	2.242280e-04	2.330065e-02	
2250	2.243280e-04	2.330065e-02	
2251	2.244280e-04	2.330065e-02	
2252	2.245280e-04	2.330065e-02	
2253	2.246280e-04	2.330065e-02	
2254	2.247280e-04	2.330065e-02	
2255	2.248280e-04	2.330065e-02	
2256	2.249280e-04	2.330065e-02	
2257	2.250280e-04	2.330065e-02	
2258	2.251280e-04	2.330065e-02	

Index   time            v(5)            
--------------------------------------------------------------------------------
2259	2.252280e-04	2.330065e-02	
2260	2.253280e-04	2.330065e-02	
2261	2.254280e-04	2.330065e-02	
2262	2.255280e-04	2.330065e-02	
2263	2.256280e-04	2.330065e-02	
2264	2.257280e-04	2.330065e-02	
2265	2.258280e-04	2.330065e-02	
2266	2.259280e-04	2.330065e-02	
2267	2.260280e-04	2.330065e-02	
2268	2.261280e-04	2.330065e-02	
2269	2.262280e-04	2.330065e-02	
2270	2.263280e-04	2.330065e-02	
2271	2.264280e-04	2.330065e-02	
2272	2.265280e-04	2.330065e-02	
2273	2.266280e-04	2.330065e-02	
2274	2.267280e-04	2.330065e-02	
2275	2.268280e-04	2.330065e-02	
2276	2.269280e-04	2.330065e-02	
2277	2.270280e-04	2.330065e-02	
2278	2.271280e-04	2.330065e-02	
2279	2.272280e-04	2.330065e-02	
2280	2.273280e-04	2.330065e-02	
2281	2.274280e-04	2.330065e-02	
2282	2.275280e-04	2.330065e-02	
2283	2.276280e-04	2.330065e-02	
2284	2.277280e-04	2.330065e-02	
2285	2.278280e-04	2.330065e-02	
2286	2.279280e-04	2.330065e-02	
2287	2.280280e-04	2.330065e-02	
2288	2.281280e-04	2.330065e-02	
2289	2.282280e-04	2.330065e-02	
2290	2.283280e-04	2.330065e-02	
2291	2.284280e-04	2.330065e-02	
2292	2.285280e-04	2.330065e-02	
2293	2.286280e-04	2.330065e-02	
2294	2.287280e-04	2.330065e-02	
2295	2.288280e-04	2.330065e-02	
2296	2.289280e-04	2.330065e-02	
2297	2.290280e-04	2.330065e-02	
2298	2.291280e-04	2.330065e-02	
2299	2.292280e-04	2.330065e-02	
2300	2.293280e-04	2.330065e-02	
2301	2.294280e-04	2.330065e-02	
2302	2.295280e-04	2.330065e-02	
2303	2.296280e-04	2.330065e-02	
2304	2.297280e-04	2.330065e-02	
2305	2.298280e-04	2.330065e-02	
2306	2.299280e-04	2.330065e-02	
2307	2.300280e-04	2.330065e-02	
2308	2.301280e-04	2.330065e-02	
2309	2.302280e-04	2.330065e-02	
2310	2.303280e-04	2.330065e-02	
2311	2.304280e-04	2.330065e-02	
2312	2.305280e-04	2.330065e-02	
2313	2.306280e-04	2.330065e-02	
2314	2.307280e-04	2.330065e-02	
2315	2.308280e-04	2.330065e-02	
2316	2.309280e-04	2.330065e-02	

Index   time            v(5)            
--------------------------------------------------------------------------------
2317	2.310280e-04	2.330065e-02	
2318	2.311280e-04	2.330065e-02	
2319	2.312280e-04	2.330065e-02	
2320	2.313280e-04	2.330065e-02	
2321	2.314280e-04	2.330065e-02	
2322	2.315280e-04	2.330065e-02	
2323	2.316280e-04	2.330065e-02	
2324	2.317280e-04	2.330065e-02	
2325	2.318280e-04	2.330065e-02	
2326	2.319280e-04	2.330065e-02	
2327	2.320280e-04	2.330065e-02	
2328	2.321280e-04	2.330065e-02	
2329	2.322280e-04	2.330065e-02	
2330	2.323280e-04	2.330065e-02	
2331	2.324280e-04	2.330065e-02	
2332	2.325280e-04	2.330065e-02	
2333	2.326280e-04	2.330065e-02	
2334	2.327280e-04	2.330065e-02	
2335	2.328280e-04	2.330065e-02	
2336	2.329280e-04	2.330065e-02	
2337	2.330280e-04	2.330065e-02	
2338	2.331280e-04	2.330065e-02	
2339	2.332280e-04	2.330065e-02	
2340	2.333280e-04	2.330065e-02	
2341	2.334280e-04	2.330065e-02	
2342	2.335280e-04	2.330065e-02	
2343	2.336280e-04	2.330065e-02	
2344	2.337280e-04	2.330065e-02	
[...]
19451	1.944428e-03	2.330065e-02	
19452	1.944528e-03	2.330065e-02	
19453	1.944628e-03	2.330065e-02	
19454	1.944728e-03	2.330065e-02	
19455	1.944828e-03	2.330065e-02	
19456	1.944928e-03	2.330065e-02	
19457	1.945028e-03	2.330065e-02	
19458	1.945128e-03	2.330065e-02	
19459	1.945228e-03	2.330065e-02	
19460	1.945328e-03	2.330065e-02	
19461	1.945428e-03	2.330065e-02	
19462	1.945528e-03	2.330065e-02	
19463	1.945628e-03	2.330065e-02	
19464	1.945728e-03	2.330065e-02	
19465	1.945828e-03	2.330065e-02	
19466	1.945928e-03	2.330065e-02	
19467	1.946028e-03	2.330065e-02	
19468	1.946128e-03	2.330065e-02	
19469	1.946228e-03	2.330065e-02	
19470	1.946328e-03	2.330065e-02	
19471	1.946428e-03	2.330065e-02	
19472	1.946528e-03	2.330065e-02	
19473	1.946628e-03	2.330065e-02	
19474	1.946728e-03	2.330065e-02	
19475	1.946828e-03	2.330065e-02	
19476	1.946928e-03	2.330065e-02	
19477	1.947028e-03	2.330065e-02	
19478	1.947128e-03	2.330065e-02	
19479	1.947228e-03	2.330065e-02	
19480	1.947328e-03	2.330065e-02	
19481	1.947428e-03	2.330065e-02	
19482	1.947528e-03	2.330065e-02	
19483	1.947628e-03	2.330065e-02	
19484	1.947728e-03	2.330065e-02	

Index   time            v(5)            
--------------------------------------------------------------------------------
19485	1.947828e-03	2.330065e-02	
19486	1.947928e-03	2.330065e-02	
19487	1.948028e-03	2.330065e-02	
19488	1.948128e-03	2.330065e-02	
19489	1.948228e-03	2.330065e-02	
19490	1.948328e-03	2.330065e-02	
19491	1.948428e-03	2.330065e-02	
19492	1.948528e-03	2.330065e-02	
19493	1.948628e-03	2.330065e-02	
19494	1.948728e-03	2.330065e-02	
19495	1.948828e-03	2.330065e-02	
19496	1.948928e-03	2.330065e-02	
19497	1.949028e-03	2.330065e-02	
19498	1.949128e-03	2.330065e-02	
19499	1.949228e-03	2.330065e-02	
19500	1.949328e-03	2.330065e-02	
19501	1.949428e-03	2.330065e-02	
19502	1.949528e-03	2.330065e-02	
19503	1.949628e-03	2.330065e-02	
19504	1.949728e-03	2.330065e-02	
19505	1.949828e-03	2.330065e-02	
19506	1.949928e-03	2.330065e-02	
19507	1.950028e-03	2.330065e-02	
19508	1.950128e-03	2.330065e-02	
19509	1.950228e-03	2.330065e-02	
19510	1.950328e-03	2.330065e-02	
19511	1.950428e-03	2.330065e-02	
19512	1.950528e-03	2.330065e-02	
19513	1.950628e-03	2.330065e-02	
19514	1.950728e-03	2.330065e-02	
19515	1.950828e-03	2.330065e-02	
19516	1.950928e-03	2.330065e-02	
19517	1.951028e-03	2.330065e-02	
19518	1.951128e-03	2.330065e-02	
19519	1.951228e-03	2.330065e-02	
19520	1.951328e-03	2.330065e-02	
19521	1.951428e-03	2.330065e-02	
19522	1.951528e-03	2.330065e-02	
19523	1.951628e-03	2.330065e-02	
19524	1.951728e-03	2.330065e-02	
19525	1.951828e-03	2.330065e-02	
19526	1.951928e-03	2.330065e-02	
19527	1.952028e-03	2.330065e-02	
19528	1.952128e-03	2.330065e-02	
19529	1.952228e-03	2.330065e-02	
19530	1.952328e-03	2.330065e-02	
19531	1.952428e-03	2.330065e-02	
19532	1.952528e-03	2.330065e-02	
19533	1.952628e-03	2.330065e-02	
19534	1.952728e-03	2.330065e-02	
19535	1.952828e-03	2.330065e-02	
19536	1.952928e-03	2.330065e-02	
19537	1.953028e-03	2.330065e-02	
19538	1.953128e-03	2.330065e-02	
19539	1.953228e-03	2.330065e-02	
19540	1.953328e-03	2.330065e-02	
19541	1.953428e-03	2.330065e-02	
19542	1.953528e-03	2.330065e-02	

Index   time            v(5)            
--------------------------------------------------------------------------------
19543	1.953628e-03	2.330065e-02	
19544	1.953728e-03	2.330065e-02	
19545	1.953828e-03	2.330065e-02	
19546	1.953928e-03	2.330065e-02	
19547	1.954028e-03	2.330065e-02	
19548	1.954128e-03	2.330065e-02	
19549	1.954228e-03	2.330065e-02	
19550	1.954328e-03	2.330065e-02	
19551	1.954428e-03	2.330065e-02	
19552	1.954528e-03	2.330065e-02	
19553	1.954628e-03	2.330065e-02	
19554	1.954728e-03	2.330065e-02	
19555	1.954828e-03	2.330065e-02	
19556	1.954928e-03	2.330065e-02	
19557	1.955028e-03	2.330065e-02	
19558	1.955128e-03	2.330065e-02	
19559	1.955228e-03	2.330065e-02	
19560	1.955328e-03	2.330065e-02	
19561	1.955428e-03	2.330065e-02	
19562	1.955528e-03	2.330065e-02	
19563	1.955628e-03	2.330065e-02	
19564	1.955728e-03	2.330065e-02	
19565	1.955828e-03	2.330065e-02	
19566	1.955928e-03	2.330065e-02	
19567	1.956028e-03	2.330065e-02	
19568	1.956128e-03	2.330065e-02	
19569	1.956228e-03	2.330065e-02	
19570	1.956328e-03	2.330065e-02	
19571	1.956428e-03	2.330065e-02	
19572	1.956528e-03	2.330065e-02	
19573	1.956628e-03	2.330065e-02	
19574	1.956728e-03	2.330065e-02	
19575	1.956828e-03	2.330065e-02	
19576	1.956928e-03	2.330065e-02	
19577	1.957028e-03	2.330065e-02	
19578	1.957128e-03	2.330065e-02	
19579	1.957228e-03	2.330065e-02	
19580	1.957328e-03	2.330065e-02	
19581	1.957428e-03	2.330065e-02	
19582	1.957528e-03	2.330065e-02	
19583	1.957628e-03	2.330065e-02	
19584	1.957728e-03	2.330065e-02	
19585	1.957828e-03	2.330065e-02	
19586	1.957928e-03	2.330065e-02	
19587	1.958028e-03	2.330065e-02	
19588	1.958128e-03	2.330065e-02	
19589	1.958228e-03	2.330065e-02	
19590	1.958328e-03	2.330065e-02	
19591	1.958428e-03	2.330065e-02	
19592	1.958528e-03	2.330065e-02	
19593	1.958628e-03	2.330065e-02	
19594	1.958728e-03	2.330065e-02	
19595	1.958828e-03	2.330065e-02	
19596	1.958928e-03	2.330065e-02	
19597	1.959028e-03	2.330065e-02	
19598	1.959128e-03	2.330065e-02	
19599	1.959228e-03	2.330065e-02	
19600	1.959328e-03	2.330065e-02	

Index   time            v(5)            
--------------------------------------------------------------------------------
19601	1.959428e-03	2.330065e-02	
19602	1.959528e-03	2.330065e-02	
19603	1.959628e-03	2.330065e-02	
19604	1.959728e-03	2.330065e-02	
19605	1.959828e-03	2.330065e-02	
19606	1.959928e-03	2.330065e-02	
19607	1.960028e-03	2.330065e-02	
19608	1.960128e-03	2.330065e-02	
19609	1.960228e-03	2.330065e-02	
19610	1.960328e-03	2.330065e-02	
19611	1.960428e-03	2.330065e-02	
19612	1.960528e-03	2.330065e-02	
19613	1.960628e-03	2.330065e-02	
19614	1.960728e-03	2.330065e-02	
19615	1.960828e-03	2.330065e-02	
19616	1.960928e-03	2.330065e-02	
19617	1.961028e-03	2.330065e-02	
19618	1.961128e-03	2.330065e-02	
19619	1.961228e-03	2.330065e-02	
19620	1.961328e-03	2.330065e-02	
19621	1.961428e-03	2.330065e-02	
19622	1.961528e-03	2.330065e-02	
19623	1.961628e-03	2.330065e-02	
19624	1.961728e-03	2.330065e-02	
19625	1.961828e-03	2.330065e-02	
19626	1.961928e-03	2.330065e-02	
19627	1.962028e-03	2.330065e-02	
19628	1.962128e-03	2.330065e-02	
19629	1.962228e-03	2.330065e-02	
19630	1.962328e-03	2.330065e-02	
19631	1.962428e-03	2.330065e-02	
19632	1.962528e-03	2.330065e-02	
19633	1.962628e-03	2.330065e-02	
19634	1.962728e-03	2.330065e-02	
19635	1.962828e-03	2.330065e-02	
19636	1.962928e-03	2.330065e-02	
19637	1.963028e-03	2.330065e-02	
19638	1.963128e-03	2.330065e-02	
19639	1.963228e-03	2.330065e-02	
19640	1.963328e-03	2.330065e-02	
19641	1.963428e-03	2.330065e-02	
19642	1.963528e-03	2.330065e-02	
19643	1.963628e-03	2.330065e-02	
19644	1.963728e-03	2.330065e-02	
19645	1.963828e-03	2.330065e-02	
19646	1.963928e-03	2.330065e-02	
19647	1.964028e-03	2.330065e-02	
19648	1.964128e-03	2.330065e-02	
19649	1.964228e-03	2.330065e-02	
19650	1.964328e-03	2.330065e-02	
19651	1.964428e-03	2.330065e-02	
19652	1.964528e-03	2.330065e-02	
19653	1.964628e-03	2.330065e-02	
19654	1.964728e-03	2.330065e-02	
19655	1.964828e-03	2.330065e-02	
19656	1.964928e-03	2.330065e-02	
19657	1.965028e-03	2.330065e-02	
19658	1.965128e-03	2.330065e-02	

Index   time            v(5)            
--------------------------------------------------------------------------------
19659	1.965228e-03	2.330065e-02	
19660	1.965328e-03	2.330065e-02	
19661	1.965428e-03	2.330065e-02	
19662	1.965528e-03	2.330065e-02	
19663	1.965628e-03	2.330065e-02	
19664	1.965728e-03	2.330065e-02	
19665	1.965828e-03	2.330065e-02	
19666	1.965928e-03	2.330065e-02	
19667	1.966028e-03	2.330065e-02	
19668	1.966128e-03	2.330065e-02	
19669	1.966228e-03	2.330065e-02	
19670	1.966328e-03	2.330065e-02	
19671	1.966428e-03	2.330065e-02	
19672	1.966528e-03	2.330065e-02	
19673	1.966628e-03	2.330065e-02	
19674	1.966728e-03	2.330065e-02	
19675	1.966828e-03	2.330065e-02	
19676	1.966928e-03	2.330065e-02	
19677	1.967028e-03	2.330065e-02	
19678	1.967128e-03	2.330065e-02	
19679	1.967228e-03	2.330065e-02	
19680	1.967328e-03	2.330065e-02	
19681	1.967428e-03	2.330065e-02	
19682	1.967528e-03	2.330065e-02	
19683	1.967628e-03	2.330065e-02	
19684	1.967728e-03	2.330065e-02	
19685	1.967828e-03	2.330065e-02	
19686	1.967928e-03	2.330065e-02	
19687	1.968028e-03	2.330065e-02	
19688	1.968128e-03	2.330065e-02	
19689	1.968228e-03	2.330065e-02	
19690	1.968328e-03	2.330065e-02	
19691	1.968428e-03	2.330065e-02	
19692	1.968528e-03	2.330065e-02	
19693	1.968628e-03	2.330065e-02	
19694	1.968728e-03	2.330065e-02	
19695	1.968828e-03	2.330065e-02	
19696	1.968928e-03	2.330065e-02	
19697	1.969028e-03	2.330065e-02	
19698	1.969128e-03	2.330065e-02	
19699	1.969228e-03	2.330065e-02	
19700	1.969328e-03	2.330065e-02	
19701	1.969428e-03	2.330065e-02	
19702	1.969528e-03	2.330065e-02	
19703	1.969628e-03	2.330065e-02	
19704	1.969728e-03	2.330065e-02	
19705	1.969828e-03	2.330065e-02	
19706	1.969928e-03	2.330065e-02	
19707	1.970028e-03	2.330065e-02	
19708	1.970128e-03	2.330065e-02	
19709	1.970228e-03	2.330065e-02	
19710	1.970328e-03	2.330065e-02	
19711	1.970428e-03	2.330065e-02	
19712	1.970528e-03	2.330065e-02	
19713	1.970628e-03	2.330065e-02	
19714	1.970728e-03	2.330065e-02	
19715	1.970828e-03	2.330065e-02	
19716	1.970928e-03	2.330065e-02	

Index   time            v(5)            
--------------------------------------------------------------------------------
19717	1.971028e-03	2.330065e-02	
19718	1.971128e-03	2.330065e-02	
19719	1.971228e-03	2.330065e-02	
19720	1.971328e-03	2.330065e-02	
19721	1.971428e-03	2.330065e-02	
19722	1.971528e-03	2.330065e-02	
19723	1.971628e-03	2.330065e-02	
19724	1.971728e-03	2.330065e-02	
19725	1.971828e-03	2.330065e-02	
19726	1.971928e-03	2.330065e-02	
19727	1.972028e-03	2.330065e-02	
19728	1.972128e-03	2.330065e-02	
19729	1.972228e-03	2.330065e-02	
19730	1.972328e-03	2.330065e-02	
19731	1.972428e-03	2.330065e-02	
19732	1.972528e-03	2.330065e-02	
19733	1.972628e-03	2.330065e-02	
19734	1.972728e-03	2.330065e-02	
19735	1.972828e-03	2.330065e-02	
19736	1.972928e-03	2.330065e-02	
19737	1.973028e-03	2.330065e-02	
19738	1.973128e-03	2.330065e-02	
19739	1.973228e-03	2.330065e-02	
19740	1.973328e-03	2.330065e-02	
19741	1.973428e-03	2.330065e-02	
19742	1.973528e-03	2.330065e-02	
19743	1.973628e-03	2.330065e-02	
19744	1.973728e-03	2.330065e-02	
19745	1.973828e-03	2.330065e-02	
19746	1.973928e-03	2.330065e-02	
19747	1.974028e-03	2.330065e-02	
19748	1.974128e-03	2.330065e-02	
19749	1.974228e-03	2.330065e-02	
19750	1.974328e-03	2.330065e-02	
19751	1.974428e-03	2.330065e-02	
19752	1.974528e-03	2.330065e-02	
19753	1.974628e-03	2.330065e-02	
19754	1.974728e-03	2.330065e-02	
19755	1.974828e-03	2.330065e-02	
19756	1.974928e-03	2.330065e-02	
19757	1.975028e-03	2.330065e-02	
19758	1.975128e-03	2.330065e-02	
19759	1.975228e-03	2.330065e-02	
19760	1.975328e-03	2.330065e-02	
19761	1.975428e-03	2.330065e-02	
19762	1.975528e-03	2.330065e-02	
19763	1.975628e-03	2.330065e-02	
19764	1.975728e-03	2.330065e-02	
19765	1.975828e-03	2.330065e-02	
19766	1.975928e-03	2.330065e-02	
19767	1.976028e-03	2.330065e-02	
19768	1.976128e-03	2.330065e-02	
19769	1.976228e-03	2.330065e-02	
19770	1.976328e-03	2.330065e-02	
19771	1.976428e-03	2.330065e-02	
19772	1.976528e-03	2.330065e-02	
19773	1.976628e-03	2.330065e-02	
19774	1.976728e-03	2.330065e-02	

Index   time            v(5)            
--------------------------------------------------------------------------------
19775	1.976828e-03	2.330065e-02	
19776	1.976928e-03	2.330065e-02	
19777	1.977028e-03	2.330065e-02	
19778	1.977128e-03	2.330065e-02	
19779	1.977228e-03	2.330065e-02	
19780	1.977328e-03	2.330065e-02	
19781	1.977428e-03	2.330065e-02	
19782	1.977528e-03	2.330065e-02	
19783	1.977628e-03	2.330065e-02	
19784	1.977728e-03	2.330065e-02	
19785	1.977828e-03	2.330065e-02	
19786	1.977928e-03	2.330065e-02	
19787	1.978028e-03	2.330065e-02	
19788	1.978128e-03	2.330065e-02	
19789	1.978228e-03	2.330065e-02	
19790	1.978328e-03	2.330065e-02	
19791	1.978428e-03	2.330065e-02	
19792	1.978528e-03	2.330065e-02	
19793	1.978628e-03	2.330065e-02	
19794	1.978728e-03	2.330065e-02	
19795	1.978828e-03	2.330065e-02	
19796	1.978928e-03	2.330065e-02	
19797	1.979028e-03	2.330065e-02	
19798	1.979128e-03	2.330065e-02	
19799	1.979228e-03	2.330065e-02	
19800	1.979328e-03	2.330065e-02	
19801	1.979428e-03	2.330065e-02	
19802	1.979528e-03	2.330065e-02	
19803	1.979628e-03	2.330065e-02	
19804	1.979728e-03	2.330065e-02	
19805	1.979828e-03	2.330065e-02	
19806	1.979928e-03	2.330065e-02	
19807	1.980028e-03	2.330065e-02	
19808	1.980128e-03	2.330065e-02	
19809	1.980228e-03	2.330065e-02	
19810	1.980328e-03	2.330065e-02	
19811	1.980428e-03	2.330065e-02	
19812	1.980528e-03	2.330065e-02	
19813	1.980628e-03	2.330065e-02	
19814	1.980728e-03	2.330065e-02	
19815	1.980828e-03	2.330065e-02	
19816	1.980928e-03	2.330065e-02	
19817	1.981028e-03	2.330065e-02	
19818	1.981128e-03	2.330065e-02	
19819	1.981228e-03	2.330065e-02	
19820	1.981328e-03	2.330065e-02	
19821	1.981428e-03	2.330065e-02	
19822	1.981528e-03	2.330065e-02	
19823	1.981628e-03	2.330065e-02	
19824	1.981728e-03	2.330065e-02	
19825	1.981828e-03	2.330065e-02	
19826	1.981928e-03	2.330065e-02	
19827	1.982028e-03	2.330065e-02	
19828	1.982128e-03	2.330065e-02	
19829	1.982228e-03	2.330065e-02	
19830	1.982328e-03	2.330065e-02	
19831	1.982428e-03	2.330065e-02	
19832	1.982528e-03	2.330065e-02	

Index   time            v(5)            
--------------------------------------------------------------------------------
19833	1.982628e-03	2.330065e-02	
19834	1.982728e-03	2.330065e-02	
19835	1.982828e-03	2.330065e-02	
19836	1.982928e-03	2.330065e-02	
19837	1.983028e-03	2.330065e-02	
19838	1.983128e-03	2.330065e-02	
19839	1.983228e-03	2.330065e-02	
19840	1.983328e-03	2.330065e-02	
19841	1.983428e-03	2.330065e-02	
19842	1.983528e-03	2.330065e-02	
19843	1.983628e-03	2.330065e-02	
19844	1.983728e-03	2.330065e-02	
19845	1.983828e-03	2.330065e-02	
19846	1.983928e-03	2.330065e-02	
19847	1.984028e-03	2.330065e-02	
19848	1.984128e-03	2.330065e-02	
19849	1.984228e-03	2.330065e-02	
19850	1.984328e-03	2.330065e-02	
19851	1.984428e-03	2.330065e-02	
19852	1.984528e-03	2.330065e-02	
19853	1.984628e-03	2.330065e-02	
19854	1.984728e-03	2.330065e-02	
19855	1.984828e-03	2.330065e-02	
19856	1.984928e-03	2.330065e-02	
19857	1.985028e-03	2.330065e-02	
19858	1.985128e-03	2.330065e-02	
19859	1.985228e-03	2.330065e-02	
19860	1.985328e-03	2.330065e-02	
19861	1.985428e-03	2.330065e-02	
19862	1.985528e-03	2.330065e-02	
19863	1.985628e-03	2.330065e-02	
19864	1.985728e-03	2.330065e-02	
19865	1.985828e-03	2.330065e-02	
19866	1.985928e-03	2.330065e-02	
19867	1.986028e-03	2.330065e-02	
19868	1.986128e-03	2.330065e-02	
19869	1.986228e-03	2.330065e-02	
19870	1.986328e-03	2.330065e-02	
19871	1.986428e-03	2.330065e-02	
19872	1.986528e-03	2.330065e-02	
19873	1.986628e-03	2.330065e-02	
19874	1.986728e-03	2.330065e-02	
19875	1.986828e-03	2.330065e-02	
19876	1.986928e-03	2.330065e-02	
19877	1.987028e-03	2.330065e-02	
19878	1.987128e-03	2.330065e-02	
19879	1.987228e-03	2.330065e-02	
19880	1.987328e-03	2.330065e-02	
19881	1.987428e-03	2.330065e-02	
19882	1.987528e-03	2.330065e-02	
19883	1.987628e-03	2.330065e-02	
19884	1.987728e-03	2.330065e-02	
19885	1.987828e-03	2.330065e-02	
19886	1.987928e-03	2.330065e-02	
19887	1.988028e-03	2.330065e-02	
19888	1.988128e-03	2.330065e-02	
19889	1.988228e-03	2.330065e-02	
19890	1.988328e-03	2.330065e-02	

Index   time            v(5)            
--------------------------------------------------------------------------------
19891	1.988428e-03	2.330065e-02	
19892	1.988528e-03	2.330065e-02	
19893	1.988628e-03	2.330065e-02	
19894	1.988728e-03	2.330065e-02	
19895	1.988828e-03	2.330065e-02	
19896	1.988928e-03	2.330065e-02	
19897	1.989028e-03	2.330065e-02	
19898	1.989128e-03	2.330065e-02	
19899	1.989228e-03	2.330065e-02	
19900	1.989328e-03	2.330065e-02	
19901	1.989428e-03	2.330065e-02	
19902	1.989528e-03	2.330065e-02	
19903	1.989628e-03	2.330065e-02	
19904	1.989728e-03	2.330065e-02	
19905	1.989828e-03	2.330065e-02	
19906	1.989928e-03	2.330065e-02	
19907	1.990028e-03	2.330065e-02	
19908	1.990128e-03	2.330065e-02	
19909	1.990228e-03	2.330065e-02	
19910	1.990328e-03	2.330065e-02	
19911	1.990428e-03	2.330065e-02	
19912	1.990528e-03	2.330065e-02	
19913	1.990628e-03	2.330065e-02	
19914	1.990728e-03	2.330065e-02	
19915	1.990828e-03	2.330065e-02	
19916	1.990928e-03	2.330065e-02	
19917	1.991028e-03	2.330065e-02	
19918	1.991128e-03	2.330065e-02	
19919	1.991228e-03	2.330065e-02	
19920	1.991328e-03	2.330065e-02	
19921	1.991428e-03	2.330065e-02	
19922	1.991528e-03	2.330065e-02	
19923	1.991628e-03	2.330065e-02	
19924	1.991728e-03	2.330065e-02	
19925	1.991828e-03	2.330065e-02	
19926	1.991928e-03	2.330065e-02	
19927	1.992028e-03	2.330065e-02	
19928	1.992128e-03	2.330065e-02	
19929	1.992228e-03	2.330065e-02	
19930	1.992328e-03	2.330065e-02	
19931	1.992428e-03	2.330065e-02	
19932	1.992528e-03	2.330065e-02	
19933	1.992628e-03	2.330065e-02	
19934	1.992728e-03	2.330065e-02	
19935	1.992828e-03	2.330065e-02	
19936	1.992928e-03	2.330065e-02	
19937	1.993028e-03	2.330065e-02	
19938	1.993128e-03	2.330065e-02	
19939	1.993228e-03	2.330065e-02	
19940	1.993328e-03	2.330065e-02	
19941	1.993428e-03	2.330065e-02	
19942	1.993528e-03	2.330065e-02	
19943	1.993628e-03	2.330065e-02	
19944	1.993728e-03	2.330065e-02	
19945	1.993828e-03	2.330065e-02	
19946	1.993928e-03	2.330065e-02	
19947	1.994028e-03	2.330065e-02	
19948	1.994128e-03	2.330065e-02	

Index   time            v(5)            
--------------------------------------------------------------------------------
19949	1.994228e-03	2.330065e-02	
19950	1.994328e-03	2.330065e-02	
19951	1.994428e-03	2.330065e-02	
19952	1.994528e-03	2.330065e-02	
19953	1.994628e-03	2.330065e-02	
19954	1.994728e-03	2.330065e-02	
19955	1.994828e-03	2.330065e-02	
19956	1.994928e-03	2.330065e-02	
19957	1.995028e-03	2.330065e-02	
19958	1.995128e-03	2.330065e-02	
19959	1.995228e-03	2.330065e-02	
19960	1.995328e-03	2.330065e-02	
19961	1.995428e-03	2.330065e-02	
19962	1.995528e-03	2.330065e-02	
19963	1.995628e-03	2.330065e-02	
19964	1.995728e-03	2.330065e-02	
19965	1.995828e-03	2.330065e-02	
19966	1.995928e-03	2.330065e-02	
19967	1.996028e-03	2.330065e-02	
19968	1.996128e-03	2.330065e-02	
19969	1.996228e-03	2.330065e-02	
19970	1.996328e-03	2.330065e-02	
19971	1.996428e-03	2.330065e-02	
19972	1.996528e-03	2.330065e-02	
19973	1.996628e-03	2.330065e-02	
19974	1.996728e-03	2.330065e-02	
19975	1.996828e-03	2.330065e-02	
19976	1.996928e-03	2.330065e-02	
19977	1.997028e-03	2.330065e-02	
19978	1.997128e-03	2.330065e-02	
19979	1.997228e-03	2.330065e-02	
19980	1.997328e-03	2.330065e-02	
19981	1.997428e-03	2.330065e-02	
19982	1.997528e-03	2.330065e-02	
19983	1.997628e-03	2.330065e-02	
19984	1.997728e-03	2.330065e-02	
19985	1.997828e-03	2.330065e-02	
19986	1.997928e-03	2.330065e-02	
19987	1.998028e-03	2.330065e-02	
19988	1.998128e-03	2.330065e-02	
19989	1.998228e-03	2.330065e-02	
19990	1.998328e-03	2.330065e-02	
19991	1.998428e-03	2.330065e-02	
19992	1.998528e-03	2.330065e-02	
19993	1.998628e-03	2.330065e-02	
19994	1.998728e-03	2.330065e-02	
19995	1.998828e-03	2.330065e-02	
19996	1.998928e-03	2.330065e-02	
19997	1.999028e-03	2.330065e-02	
19998	1.999128e-03	2.330065e-02	
19999	1.999228e-03	2.330065e-02	
20000	1.999328e-03	2.330065e-02	
20001	1.999428e-03	2.330065e-02	
20002	1.999528e-03	2.330065e-02	
20003	1.999628e-03	2.330065e-02	
20004	1.999728e-03	2.330065e-02	
20005	1.999828e-03	2.330065e-02	
20006	1.999928e-03	2.330065e-02	

Index   time            v(5)            
--------------------------------------------------------------------------------
20007	2.000000e-03	2.330065e-02	

CPU time since last call: 0.260 seconds.

Total CPU time: 0.260 seconds.

Total DRAM available = 7808.492188 MB.
DRAM currently available = 1835.539062 MB.
Total ngspice program size = 3.578125 MB.
Resident set size = 1.735352 MB.
Shared ngspice pages = 1.359375 MB.
Text (code) pages = 1.324219 MB.
Stack = 0 bytes.
Library pages = 526.000 kB.

