

Circuit: Problem 3 

Doing analysis at TEMP = 27.000000 and TNOM = 27.000000

No. of Data Rows : 10016

  Measurements for Transient Analysis

vo                  =  1.196982e+01 from=  0.000000e+00 to=  0.000000e+00
