
Circuit: Problem 1 

Doing analysis at TEMP = 27.000000 and TNOM = 27.000000


No. of Data Rows : 6001
w0                  =  4.591980e+06 with=  5.086598e+01

                                   Problem 1 
                                   AC Analysis  Mon Aug  7 19:35:04  2017
--------------------------------------------------------------------------------
Index   frequency       vm(6)           
--------------------------------------------------------------------------------
0	1.000000e+03	8.884787e-04	
1	1.002305e+03	8.906295e-04	
2	1.004616e+03	8.927850e-04	
3	1.006932e+03	8.949454e-04	
4	1.009253e+03	8.971105e-04	
5	1.011579e+03	8.992804e-04	
6	1.013911e+03	9.014551e-04	
7	1.016249e+03	9.036346e-04	
8	1.018591e+03	9.058190e-04	
9	1.020939e+03	9.080082e-04	
10	1.023293e+03	9.102023e-04	
11	1.025652e+03	9.124012e-04	
12	1.028016e+03	9.146050e-04	
13	1.030386e+03	9.168137e-04	
14	1.032761e+03	9.190273e-04	
15	1.035142e+03	9.212458e-04	
16	1.037528e+03	9.234692e-04	
17	1.039920e+03	9.256976e-04	
18	1.042317e+03	9.279309e-04	
19	1.044720e+03	9.301692e-04	
20	1.047129e+03	9.324124e-04	
21	1.049542e+03	9.346607e-04	
22	1.051962e+03	9.369139e-04	
23	1.054387e+03	9.391721e-04	
24	1.056818e+03	9.414354e-04	
25	1.059254e+03	9.437037e-04	
26	1.061696e+03	9.459770e-04	
27	1.064143e+03	9.482554e-04	
28	1.066596e+03	9.505389e-04	
29	1.069055e+03	9.528274e-04	
30	1.071519e+03	9.551210e-04	
31	1.073989e+03	9.574198e-04	
32	1.076465e+03	9.597236e-04	
33	1.078947e+03	9.620326e-04	
34	1.081434e+03	9.643467e-04	
35	1.083927e+03	9.666660e-04	
36	1.086426e+03	9.689904e-04	
37	1.088930e+03	9.713200e-04	
38	1.091440e+03	9.736548e-04	
39	1.093956e+03	9.759948e-04	
40	1.096478e+03	9.783401e-04	
41	1.099006e+03	9.806905e-04	
42	1.101539e+03	9.830462e-04	
43	1.104079e+03	9.854072e-04	
44	1.106624e+03	9.877734e-04	
45	1.109175e+03	9.901449e-04	
46	1.111732e+03	9.925216e-04	
47	1.114295e+03	9.949037e-04	
48	1.116863e+03	9.972911e-04	
49	1.119438e+03	9.996838e-04	
50	1.122018e+03	1.002082e-03	
51	1.124605e+03	1.004485e-03	
52	1.127197e+03	1.006894e-03	
53	1.129796e+03	1.009308e-03	
54	1.132400e+03	1.011728e-03	

Index   frequency       vm(6)           
--------------------------------------------------------------------------------
55	1.135011e+03	1.014153e-03	
56	1.137627e+03	1.016583e-03	
57	1.140250e+03	1.019019e-03	
58	1.142878e+03	1.021460e-03	
59	1.145513e+03	1.023907e-03	
60	1.148154e+03	1.026359e-03	
61	1.150800e+03	1.028817e-03	
62	1.153453e+03	1.031280e-03	
63	1.156112e+03	1.033749e-03	
64	1.158777e+03	1.036223e-03	
65	1.161449e+03	1.038703e-03	
66	1.164126e+03	1.041188e-03	
67	1.166810e+03	1.043679e-03	
68	1.169499e+03	1.046175e-03	
69	1.172195e+03	1.048677e-03	
70	1.174898e+03	1.051185e-03	
71	1.177606e+03	1.053698e-03	
72	1.180321e+03	1.056217e-03	
73	1.183042e+03	1.058741e-03	
74	1.185769e+03	1.061272e-03	
75	1.188502e+03	1.063807e-03	
76	1.191242e+03	1.066349e-03	
77	1.193988e+03	1.068896e-03	
78	1.196741e+03	1.071449e-03	
79	1.199499e+03	1.074008e-03	
80	1.202264e+03	1.076572e-03	
81	1.205036e+03	1.079142e-03	
82	1.207814e+03	1.081718e-03	
83	1.210598e+03	1.084300e-03	
84	1.213389e+03	1.086887e-03	
85	1.216186e+03	1.089481e-03	
86	1.218990e+03	1.092080e-03	
87	1.221800e+03	1.094685e-03	
88	1.224616e+03	1.097296e-03	
89	1.227439e+03	1.099912e-03	
90	1.230269e+03	1.102535e-03	
91	1.233105e+03	1.105163e-03	
92	1.235947e+03	1.107797e-03	
93	1.238797e+03	1.110438e-03	
94	1.241652e+03	1.113084e-03	
95	1.244515e+03	1.115736e-03	
96	1.247384e+03	1.118394e-03	
97	1.250259e+03	1.121058e-03	
98	1.253141e+03	1.123728e-03	
99	1.256030e+03	1.126404e-03	
100	1.258925e+03	1.129086e-03	
101	1.261828e+03	1.131774e-03	
102	1.264736e+03	1.134469e-03	
103	1.267652e+03	1.137169e-03	
104	1.270574e+03	1.139875e-03	
105	1.273503e+03	1.142587e-03	
106	1.276439e+03	1.145306e-03	
107	1.279381e+03	1.148031e-03	
108	1.282331e+03	1.150761e-03	
109	1.285287e+03	1.153498e-03	
110	1.288250e+03	1.156241e-03	
111	1.291219e+03	1.158991e-03	
112	1.294196e+03	1.161746e-03	

Index   frequency       vm(6)           
--------------------------------------------------------------------------------
113	1.297179e+03	1.164508e-03	
114	1.300170e+03	1.167275e-03	
115	1.303167e+03	1.170050e-03	
116	1.306171e+03	1.172830e-03	
117	1.309182e+03	1.175617e-03	
118	1.312200e+03	1.178409e-03	
119	1.315225e+03	1.181209e-03	
120	1.318257e+03	1.184014e-03	
121	1.321296e+03	1.186826e-03	
122	1.324342e+03	1.189644e-03	
123	1.327394e+03	1.192469e-03	
124	1.330454e+03	1.195300e-03	
125	1.333521e+03	1.198137e-03	
126	1.336596e+03	1.200981e-03	
127	1.339677e+03	1.203831e-03	
128	1.342765e+03	1.206687e-03	
129	1.345860e+03	1.209550e-03	
130	1.348963e+03	1.212420e-03	
131	1.352073e+03	1.215296e-03	
132	1.355189e+03	1.218178e-03	
133	1.358313e+03	1.221067e-03	
134	1.361445e+03	1.223963e-03	
135	1.364583e+03	1.226865e-03	
136	1.367729e+03	1.229773e-03	
137	1.370882e+03	1.232689e-03	
138	1.374042e+03	1.235610e-03	
139	1.377209e+03	1.238539e-03	
140	1.380384e+03	1.241474e-03	
141	1.383566e+03	1.244415e-03	
142	1.386756e+03	1.247364e-03	
143	1.389953e+03	1.250319e-03	
144	1.393157e+03	1.253280e-03	
145	1.396368e+03	1.256249e-03	
146	1.399587e+03	1.259224e-03	
147	1.402814e+03	1.262205e-03	
148	1.406048e+03	1.265194e-03	
149	1.409289e+03	1.268189e-03	
150	1.412538e+03	1.271191e-03	
151	1.415794e+03	1.274200e-03	
152	1.419058e+03	1.277216e-03	
153	1.422329e+03	1.280238e-03	
154	1.425608e+03	1.283268e-03	
155	1.428894e+03	1.286304e-03	
156	1.432188e+03	1.289347e-03	
157	1.435489e+03	1.292397e-03	
158	1.438799e+03	1.295454e-03	
159	1.442115e+03	1.298518e-03	
160	1.445440e+03	1.301589e-03	
161	1.448772e+03	1.304666e-03	
162	1.452112e+03	1.307751e-03	
163	1.455459e+03	1.310843e-03	
164	1.458814e+03	1.313942e-03	
165	1.462177e+03	1.317047e-03	
166	1.465548e+03	1.320160e-03	
167	1.468926e+03	1.323280e-03	
168	1.472313e+03	1.326407e-03	
169	1.475707e+03	1.329541e-03	
170	1.479108e+03	1.332682e-03	

Index   frequency       vm(6)           
--------------------------------------------------------------------------------
171	1.482518e+03	1.335831e-03	
172	1.485936e+03	1.338986e-03	
173	1.489361e+03	1.342149e-03	
174	1.492794e+03	1.345318e-03	
175	1.496236e+03	1.348495e-03	
176	1.499685e+03	1.351680e-03	
177	1.503142e+03	1.354871e-03	
178	1.506607e+03	1.358070e-03	
179	1.510080e+03	1.361276e-03	
180	1.513561e+03	1.364489e-03	
181	1.517050e+03	1.367709e-03	
182	1.520548e+03	1.370937e-03	
183	1.524053e+03	1.374173e-03	
184	1.527566e+03	1.377415e-03	
185	1.531087e+03	1.380665e-03	
186	1.534617e+03	1.383922e-03	
187	1.538155e+03	1.387187e-03	
188	1.541700e+03	1.390459e-03	
189	1.545254e+03	1.393739e-03	
190	1.548817e+03	1.397026e-03	
191	1.552387e+03	1.400320e-03	
192	1.555966e+03	1.403622e-03	
193	1.559553e+03	1.406932e-03	
194	1.563148e+03	1.410249e-03	
195	1.566751e+03	1.413574e-03	
196	1.570363e+03	1.416906e-03	
197	1.573983e+03	1.420246e-03	
198	1.577611e+03	1.423593e-03	
199	1.581248e+03	1.426948e-03	
200	1.584893e+03	1.430311e-03	
201	1.588547e+03	1.433681e-03	
202	1.592209e+03	1.437059e-03	
203	1.595879e+03	1.440445e-03	
204	1.599558e+03	1.443838e-03	
205	1.603245e+03	1.447239e-03	
206	1.606941e+03	1.450648e-03	
207	1.610646e+03	1.454065e-03	
208	1.614359e+03	1.457489e-03	
209	1.618080e+03	1.460921e-03	
210	1.621810e+03	1.464361e-03	
211	1.625549e+03	1.467809e-03	
212	1.629296e+03	1.471265e-03	
213	1.633052e+03	1.474729e-03	
214	1.636817e+03	1.478200e-03	
215	1.640590e+03	1.481680e-03	
216	1.644372e+03	1.485167e-03	
217	1.648162e+03	1.488662e-03	
218	1.651962e+03	1.492166e-03	
219	1.655770e+03	1.495677e-03	
220	1.659587e+03	1.499196e-03	
221	1.663413e+03	1.502724e-03	
222	1.667247e+03	1.506259e-03	
223	1.671091e+03	1.509803e-03	
224	1.674943e+03	1.513354e-03	
225	1.678804e+03	1.516914e-03	
226	1.682674e+03	1.520482e-03	
227	1.686553e+03	1.524058e-03	
228	1.690441e+03	1.527642e-03	

Index   frequency       vm(6)           
--------------------------------------------------------------------------------
229	1.694338e+03	1.531235e-03	
230	1.698244e+03	1.534835e-03	
231	1.702159e+03	1.538444e-03	
232	1.706082e+03	1.542061e-03	
233	1.710015e+03	1.545686e-03	
234	1.713957e+03	1.549320e-03	
235	1.717908e+03	1.552962e-03	
236	1.721869e+03	1.556612e-03	
237	1.725838e+03	1.560271e-03	
238	1.729816e+03	1.563938e-03	
239	1.733804e+03	1.567613e-03	
240	1.737801e+03	1.571297e-03	
241	1.741807e+03	1.574989e-03	
242	1.745822e+03	1.578689e-03	
243	1.749847e+03	1.582398e-03	
244	1.753881e+03	1.586116e-03	
245	1.757924e+03	1.589842e-03	
246	1.761976e+03	1.593577e-03	
247	1.766038e+03	1.597320e-03	
248	1.770109e+03	1.601072e-03	
249	1.774189e+03	1.604832e-03	
250	1.778279e+03	1.608601e-03	
251	1.782379e+03	1.612378e-03	
252	1.786488e+03	1.616165e-03	
253	1.790606e+03	1.619960e-03	
254	1.794734e+03	1.623763e-03	
255	1.798871e+03	1.627575e-03	
256	1.803018e+03	1.631396e-03	
257	1.807174e+03	1.635226e-03	
258	1.811340e+03	1.639065e-03	
259	1.815516e+03	1.642912e-03	
260	1.819701e+03	1.646768e-03	
261	1.823896e+03	1.650633e-03	
262	1.828100e+03	1.654507e-03	
263	1.832314e+03	1.658390e-03	
264	1.836538e+03	1.662282e-03	
265	1.840772e+03	1.666182e-03	
266	1.845015e+03	1.670092e-03	
267	1.849269e+03	1.674010e-03	
268	1.853532e+03	1.677938e-03	
269	1.857804e+03	1.681874e-03	
270	1.862087e+03	1.685820e-03	
271	1.866380e+03	1.689775e-03	
272	1.870682e+03	1.693738e-03	
273	1.874995e+03	1.697711e-03	
274	1.879317e+03	1.701693e-03	
275	1.883649e+03	1.705684e-03	
276	1.887991e+03	1.709684e-03	
277	1.892344e+03	1.713694e-03	
278	1.896706e+03	1.717712e-03	
279	1.901078e+03	1.721740e-03	
280	1.905461e+03	1.725777e-03	
281	1.909853e+03	1.729824e-03	
282	1.914256e+03	1.733879e-03	
283	1.918669e+03	1.737944e-03	
284	1.923092e+03	1.742018e-03	
285	1.927525e+03	1.746102e-03	
286	1.931968e+03	1.750195e-03	

Index   frequency       vm(6)           
--------------------------------------------------------------------------------
287	1.936422e+03	1.754298e-03	
288	1.940886e+03	1.758410e-03	
289	1.945360e+03	1.762531e-03	
290	1.949845e+03	1.766662e-03	
291	1.954339e+03	1.770802e-03	
292	1.958845e+03	1.774952e-03	
293	1.963360e+03	1.779111e-03	
294	1.967886e+03	1.783280e-03	
295	1.972423e+03	1.787459e-03	
296	1.976970e+03	1.791647e-03	
297	1.981527e+03	1.795845e-03	
298	1.986095e+03	1.800052e-03	
299	1.990673e+03	1.804270e-03	
300	1.995262e+03	1.808496e-03	
301	1.999862e+03	1.812733e-03	
302	2.004472e+03	1.816979e-03	
303	2.009093e+03	1.821236e-03	
304	2.013724e+03	1.825502e-03	
305	2.018366e+03	1.829777e-03	
306	2.023019e+03	1.834063e-03	
307	2.027683e+03	1.838358e-03	
308	2.032357e+03	1.842664e-03	
309	2.037042e+03	1.846979e-03	
310	2.041738e+03	1.851304e-03	
311	2.046445e+03	1.855640e-03	
312	2.051162e+03	1.859985e-03	
313	2.055891e+03	1.864340e-03	
314	2.060630e+03	1.868705e-03	
315	2.065380e+03	1.873080e-03	
316	2.070141e+03	1.877466e-03	
317	2.074914e+03	1.881861e-03	
318	2.079697e+03	1.886267e-03	
319	2.084491e+03	1.890683e-03	
320	2.089296e+03	1.895109e-03	
321	2.094112e+03	1.899545e-03	
322	2.098940e+03	1.903992e-03	
323	2.103778e+03	1.908448e-03	
324	2.108628e+03	1.912915e-03	
325	2.113489e+03	1.917393e-03	
326	2.118361e+03	1.921880e-03	
327	2.123244e+03	1.926378e-03	
328	2.128139e+03	1.930887e-03	
329	2.133045e+03	1.935405e-03	
330	2.137962e+03	1.939935e-03	
331	2.142891e+03	1.944474e-03	
332	2.147830e+03	1.949024e-03	
333	2.152782e+03	1.953585e-03	
334	2.157744e+03	1.958156e-03	
335	2.162719e+03	1.962738e-03	
336	2.167704e+03	1.967330e-03	
337	2.172701e+03	1.971933e-03	
338	2.177710e+03	1.976547e-03	
339	2.182730e+03	1.981171e-03	
340	2.187762e+03	1.985806e-03	
341	2.192805e+03	1.990452e-03	
342	2.197860e+03	1.995108e-03	
343	2.202926e+03	1.999775e-03	
344	2.208005e+03	2.004453e-03	

Index   frequency       vm(6)           
--------------------------------------------------------------------------------
345	2.213095e+03	2.009142e-03	
346	2.218196e+03	2.013842e-03	
347	2.223310e+03	2.018552e-03	
348	2.228435e+03	2.023274e-03	
349	2.233572e+03	2.028006e-03	
350	2.238721e+03	2.032749e-03	
351	2.243882e+03	2.037503e-03	
352	2.249055e+03	2.042269e-03	
353	2.254239e+03	2.047045e-03	
354	2.259436e+03	2.051832e-03	
355	2.264644e+03	2.056631e-03	
356	2.269865e+03	2.061440e-03	
357	2.275097e+03	2.066261e-03	
358	2.280342e+03	2.071093e-03	
359	2.285599e+03	2.075936e-03	
360	2.290868e+03	2.080790e-03	
361	2.296149e+03	2.085655e-03	
362	2.301442e+03	2.090532e-03	
363	2.306747e+03	2.095420e-03	
364	2.312065e+03	2.100320e-03	
365	2.317395e+03	2.105230e-03	
366	2.322737e+03	2.110152e-03	
367	2.328091e+03	2.115086e-03	
368	2.333458e+03	2.120031e-03	
369	2.338837e+03	2.124987e-03	
370	2.344229e+03	2.129955e-03	
371	2.349633e+03	2.134935e-03	
372	2.355049e+03	2.139926e-03	
373	2.360478e+03	2.144928e-03	
374	2.365920e+03	2.149942e-03	
375	2.371374e+03	2.154968e-03	
376	2.376840e+03	2.160006e-03	
377	2.382319e+03	2.165055e-03	
378	2.387811e+03	2.170116e-03	
379	2.393316e+03	2.175188e-03	
380	2.398833e+03	2.180273e-03	
381	2.404363e+03	2.185369e-03	
382	2.409905e+03	2.190477e-03	
383	2.415461e+03	2.195597e-03	
384	2.421029e+03	2.200728e-03	
385	2.426610e+03	2.205872e-03	
386	2.432204e+03	2.211028e-03	
387	2.437811e+03	2.216195e-03	
388	2.443431e+03	2.221375e-03	
389	2.449063e+03	2.226567e-03	
390	2.454709e+03	2.231770e-03	
391	2.460368e+03	2.236986e-03	
392	2.466039e+03	2.242214e-03	
393	2.471724e+03	2.247454e-03	
394	2.477422e+03	2.252706e-03	
395	2.483133e+03	2.257971e-03	
396	2.488857e+03	2.263248e-03	
397	2.494595e+03	2.268537e-03	
398	2.500345e+03	2.273838e-03	
399	2.506109e+03	2.279151e-03	
400	2.511886e+03	2.284477e-03	
401	2.517677e+03	2.289816e-03	
402	2.523481e+03	2.295167e-03	

Index   frequency       vm(6)           
--------------------------------------------------------------------------------
403	2.529298e+03	2.300530e-03	
404	2.535129e+03	2.305905e-03	
405	2.540973e+03	2.311294e-03	
406	2.546830e+03	2.316694e-03	
407	2.552701e+03	2.322108e-03	
408	2.558586e+03	2.327534e-03	
409	2.564484e+03	2.332972e-03	
410	2.570396e+03	2.338424e-03	
411	2.576321e+03	2.343888e-03	
412	2.582260e+03	2.349364e-03	
413	2.588213e+03	2.354854e-03	
414	2.594179e+03	2.360356e-03	
415	2.600160e+03	2.365871e-03	
416	2.606154e+03	2.371399e-03	
417	2.612161e+03	2.376940e-03	
418	2.618183e+03	2.382493e-03	
419	2.624219e+03	2.388060e-03	
420	2.630268e+03	2.393640e-03	
421	2.636331e+03	2.399232e-03	
422	2.642409e+03	2.404838e-03	
423	2.648500e+03	2.410457e-03	
424	2.654606e+03	2.416088e-03	
425	2.660725e+03	2.421733e-03	
426	2.666859e+03	2.427392e-03	
427	2.673006e+03	2.433063e-03	
428	2.679168e+03	2.438747e-03	
429	2.685344e+03	2.444445e-03	
430	2.691535e+03	2.450157e-03	
431	2.697739e+03	2.455881e-03	
432	2.703958e+03	2.461619e-03	
433	2.710192e+03	2.467370e-03	
434	2.716439e+03	2.473135e-03	
435	2.722701e+03	2.478913e-03	
436	2.728978e+03	2.484705e-03	
437	2.735269e+03	2.490510e-03	
438	2.741574e+03	2.496329e-03	
439	2.747894e+03	2.502161e-03	
440	2.754229e+03	2.508007e-03	
441	2.760578e+03	2.513866e-03	
442	2.766942e+03	2.519740e-03	
443	2.773320e+03	2.525627e-03	
444	2.779713e+03	2.531528e-03	
445	2.786121e+03	2.537442e-03	
446	2.792544e+03	2.543371e-03	
447	2.798981e+03	2.549313e-03	
448	2.805434e+03	2.555269e-03	
449	2.811901e+03	2.561239e-03	
450	2.818383e+03	2.567224e-03	
451	2.824880e+03	2.573222e-03	
452	2.831392e+03	2.579234e-03	
453	2.837919e+03	2.585260e-03	
454	2.844461e+03	2.591300e-03	
455	2.851018e+03	2.597355e-03	
456	2.857591e+03	2.603424e-03	
457	2.864178e+03	2.609506e-03	
458	2.870781e+03	2.615604e-03	
459	2.877398e+03	2.621715e-03	
460	2.884032e+03	2.627841e-03	

Index   frequency       vm(6)           
--------------------------------------------------------------------------------
461	2.890680e+03	2.633981e-03	
462	2.897344e+03	2.640135e-03	
463	2.904023e+03	2.646304e-03	
464	2.910717e+03	2.652487e-03	
465	2.917427e+03	2.658685e-03	
466	2.924152e+03	2.664898e-03	
467	2.930893e+03	2.671125e-03	
468	2.937650e+03	2.677366e-03	
469	2.944422e+03	2.683622e-03	
470	2.951209e+03	2.689893e-03	
471	2.958012e+03	2.696179e-03	
472	2.964831e+03	2.702479e-03	
473	2.971666e+03	2.708794e-03	
474	2.978516e+03	2.715124e-03	
475	2.985383e+03	2.721469e-03	
476	2.992265e+03	2.727828e-03	
477	2.999163e+03	2.734203e-03	
478	3.006076e+03	2.740593e-03	
479	3.013006e+03	2.746997e-03	
480	3.019952e+03	2.753417e-03	
481	3.026913e+03	2.759851e-03	
482	3.033891e+03	2.766301e-03	
483	3.040885e+03	2.772766e-03	
484	3.047895e+03	2.779246e-03	
485	3.054921e+03	2.785742e-03	
486	3.061963e+03	2.792252e-03	
487	3.069022e+03	2.798778e-03	
488	3.076097e+03	2.805320e-03	
489	3.083188e+03	2.811876e-03	
490	3.090295e+03	2.818448e-03	
491	3.097419e+03	2.825036e-03	
492	3.104560e+03	2.831639e-03	
493	3.111716e+03	2.838258e-03	
494	3.118890e+03	2.844892e-03	
495	3.126079e+03	2.851542e-03	
496	3.133286e+03	2.858207e-03	
497	3.140509e+03	2.864888e-03	
498	3.147748e+03	2.871585e-03	
499	3.155005e+03	2.878298e-03	
500	3.162278e+03	2.885026e-03	
501	3.169567e+03	2.891770e-03	
502	3.176874e+03	2.898531e-03	
503	3.184198e+03	2.905307e-03	
504	3.191538e+03	2.912099e-03	
505	3.198895e+03	2.918907e-03	
506	3.206269e+03	2.925731e-03	
507	3.213661e+03	2.932571e-03	
508	3.221069e+03	2.939427e-03	
509	3.228494e+03	2.946300e-03	
510	3.235937e+03	2.953189e-03	
511	3.243396e+03	2.960094e-03	
512	3.250873e+03	2.967015e-03	
513	3.258367e+03	2.973952e-03	
514	3.265878e+03	2.980906e-03	
515	3.273407e+03	2.987877e-03	
516	3.280953e+03	2.994864e-03	
517	3.288516e+03	3.001867e-03	
518	3.296097e+03	3.008887e-03	

Index   frequency       vm(6)           
--------------------------------------------------------------------------------
519	3.303695e+03	3.015923e-03	
520	3.311311e+03	3.022976e-03	
521	3.318945e+03	3.030046e-03	
522	3.326596e+03	3.037132e-03	
523	3.334264e+03	3.044235e-03	
524	3.341950e+03	3.051355e-03	
525	3.349654e+03	3.058492e-03	
526	3.357376e+03	3.065646e-03	
527	3.365116e+03	3.072816e-03	
528	3.372873e+03	3.080004e-03	
529	3.380648e+03	3.087208e-03	
530	3.388442e+03	3.094430e-03	
531	3.396253e+03	3.101668e-03	
532	3.404082e+03	3.108924e-03	
533	3.411929e+03	3.116197e-03	
534	3.419794e+03	3.123487e-03	
535	3.427678e+03	3.130795e-03	
536	3.435579e+03	3.138119e-03	
537	3.443499e+03	3.145461e-03	
538	3.451437e+03	3.152821e-03	
539	3.459394e+03	3.160198e-03	
540	3.467369e+03	3.167592e-03	
541	3.475362e+03	3.175004e-03	
542	3.483373e+03	3.182433e-03	
543	3.491403e+03	3.189880e-03	
544	3.499452e+03	3.197345e-03	
545	3.507519e+03	3.204827e-03	
546	3.515604e+03	3.212327e-03	
547	3.523709e+03	3.219845e-03	
548	3.531832e+03	3.227381e-03	
549	3.539973e+03	3.234935e-03	
550	3.548134e+03	3.242506e-03	
551	3.556313e+03	3.250096e-03	
552	3.564511e+03	3.257703e-03	
553	3.572728e+03	3.265329e-03	
554	3.580964e+03	3.272973e-03	
555	3.589219e+03	3.280634e-03	
556	3.597493e+03	3.288315e-03	
557	3.605786e+03	3.296013e-03	
558	3.614099e+03	3.303729e-03	
559	3.622430e+03	3.311464e-03	
560	3.630781e+03	3.319218e-03	
561	3.639150e+03	3.326989e-03	
562	3.647539e+03	3.334780e-03	
563	3.655948e+03	3.342588e-03	
564	3.664376e+03	3.350416e-03	
565	3.672823e+03	3.358262e-03	
566	3.681290e+03	3.366126e-03	
567	3.689776e+03	3.374009e-03	
568	3.698282e+03	3.381911e-03	
569	3.706807e+03	3.389832e-03	
570	3.715352e+03	3.397772e-03	
571	3.723917e+03	3.405731e-03	
572	3.732502e+03	3.413708e-03	
573	3.741106e+03	3.421705e-03	
574	3.749730e+03	3.429721e-03	
575	3.758374e+03	3.437755e-03	
576	3.767038e+03	3.445809e-03	

Index   frequency       vm(6)           
--------------------------------------------------------------------------------
577	3.775722e+03	3.453882e-03	
578	3.784426e+03	3.461975e-03	
579	3.793150e+03	3.470086e-03	
580	3.801894e+03	3.478217e-03	
581	3.810658e+03	3.486368e-03	
582	3.819443e+03	3.494537e-03	
583	3.828247e+03	3.502727e-03	
584	3.837072e+03	3.510936e-03	
585	3.845918e+03	3.519164e-03	
586	3.854784e+03	3.527412e-03	
587	3.863670e+03	3.535680e-03	
588	3.872576e+03	3.543968e-03	
589	3.881504e+03	3.552275e-03	
590	3.890451e+03	3.560602e-03	
591	3.899420e+03	3.568949e-03	
592	3.908409e+03	3.577316e-03	
593	3.917419e+03	3.585703e-03	
594	3.926449e+03	3.594110e-03	
595	3.935501e+03	3.602538e-03	
596	3.944573e+03	3.610985e-03	
597	3.953666e+03	3.619453e-03	
598	3.962780e+03	3.627941e-03	
599	3.971915e+03	3.636449e-03	
600	3.981072e+03	3.644977e-03	
601	3.990249e+03	3.653526e-03	
602	3.999447e+03	3.662096e-03	
603	4.008667e+03	3.670686e-03	
604	4.017908e+03	3.679296e-03	
605	4.027170e+03	3.687927e-03	
606	4.036454e+03	3.696579e-03	
607	4.045759e+03	3.705252e-03	
608	4.055085e+03	3.713945e-03	
609	4.064433e+03	3.722659e-03	
610	4.073803e+03	3.731394e-03	
611	4.083194e+03	3.740150e-03	
612	4.092607e+03	3.748928e-03	
613	4.102041e+03	3.757726e-03	
614	4.111497e+03	3.766545e-03	
615	4.120975e+03	3.775385e-03	
616	4.130475e+03	3.784247e-03	
617	4.139997e+03	3.793130e-03	
618	4.149540e+03	3.802034e-03	
619	4.159106e+03	3.810960e-03	
620	4.168694e+03	3.819907e-03	
621	4.178304e+03	3.828876e-03	
622	4.187936e+03	3.837866e-03	
623	4.197590e+03	3.846878e-03	
624	4.207266e+03	3.855911e-03	
625	4.216965e+03	3.864967e-03	
626	4.226686e+03	3.874044e-03	
627	4.236430e+03	3.883143e-03	
628	4.246196e+03	3.892263e-03	
629	4.255984e+03	3.901406e-03	
630	4.265795e+03	3.910571e-03	
631	4.275629e+03	3.919758e-03	
632	4.285485e+03	3.928967e-03	
633	4.295364e+03	3.938198e-03	
634	4.305266e+03	3.947451e-03	

Index   frequency       vm(6)           
--------------------------------------------------------------------------------
635	4.315191e+03	3.956727e-03	
636	4.325138e+03	3.966025e-03	
637	4.335109e+03	3.975346e-03	
638	4.345102e+03	3.984689e-03	
639	4.355119e+03	3.994054e-03	
640	4.365158e+03	4.003443e-03	
641	4.375221e+03	4.012853e-03	
642	4.385307e+03	4.022287e-03	
643	4.395416e+03	4.031743e-03	
644	4.405549e+03	4.041222e-03	
645	4.415704e+03	4.050725e-03	
646	4.425884e+03	4.060250e-03	
647	4.436086e+03	4.069798e-03	
648	4.446313e+03	4.079369e-03	
649	4.456562e+03	4.088963e-03	
650	4.466836e+03	4.098581e-03	
651	4.477133e+03	4.108222e-03	
652	4.487454e+03	4.117886e-03	
653	4.497799e+03	4.127573e-03	
654	4.508167e+03	4.137284e-03	
655	4.518559e+03	4.147019e-03	
656	4.528976e+03	4.156777e-03	
657	4.539416e+03	4.166559e-03	
658	4.549881e+03	4.176364e-03	
659	4.560369e+03	4.186193e-03	
660	4.570882e+03	4.196046e-03	
661	4.581419e+03	4.205923e-03	
662	4.591980e+03	4.215824e-03	
663	4.602566e+03	4.225749e-03	
664	4.613176e+03	4.235698e-03	
665	4.623810e+03	4.245671e-03	
666	4.634469e+03	4.255668e-03	
667	4.645153e+03	4.265690e-03	
668	4.655861e+03	4.275736e-03	
669	4.666594e+03	4.285806e-03	
670	4.677351e+03	4.295901e-03	
671	4.688134e+03	4.306021e-03	
672	4.698941e+03	4.316165e-03	
673	4.709773e+03	4.326333e-03	
674	4.720630e+03	4.336527e-03	
675	4.731513e+03	4.346745e-03	
676	4.742420e+03	4.356988e-03	
677	4.753352e+03	4.367256e-03	
678	4.764310e+03	4.377549e-03	
679	4.775293e+03	4.387868e-03	
680	4.786301e+03	4.398211e-03	
681	4.797334e+03	4.408579e-03	
682	4.808393e+03	4.418973e-03	
683	4.819478e+03	4.429392e-03	
684	4.830588e+03	4.439837e-03	
685	4.841724e+03	4.450307e-03	
686	4.852885e+03	4.460802e-03	
687	4.864072e+03	4.471324e-03	
688	4.875285e+03	4.481870e-03	
689	4.886524e+03	4.492443e-03	
690	4.897788e+03	4.503041e-03	
691	4.909079e+03	4.513666e-03	
692	4.920395e+03	4.524316e-03	

Index   frequency       vm(6)           
--------------------------------------------------------------------------------
693	4.931738e+03	4.534992e-03	
694	4.943107e+03	4.545695e-03	
695	4.954502e+03	4.556424e-03	
696	4.965923e+03	4.567178e-03	
697	4.977371e+03	4.577960e-03	
698	4.988845e+03	4.588767e-03	
699	5.000345e+03	4.599601e-03	
700	5.011872e+03	4.610462e-03	
701	5.023426e+03	4.621349e-03	
702	5.035006e+03	4.632263e-03	
703	5.046613e+03	4.643204e-03	
704	5.058247e+03	4.654171e-03	
705	5.069907e+03	4.665166e-03	
706	5.081594e+03	4.676187e-03	
707	5.093309e+03	4.687235e-03	
708	5.105050e+03	4.698311e-03	
709	5.116818e+03	4.709414e-03	
710	5.128614e+03	4.720544e-03	
711	5.140437e+03	4.731701e-03	
712	5.152286e+03	4.742886e-03	
713	5.164164e+03	4.754098e-03	
714	5.176068e+03	4.765338e-03	
715	5.188000e+03	4.776605e-03	
716	5.199960e+03	4.787901e-03	
717	5.211947e+03	4.799224e-03	
718	5.223962e+03	4.810575e-03	
719	5.236004e+03	4.821953e-03	
720	5.248075e+03	4.833360e-03	
721	5.260173e+03	4.844795e-03	
722	5.272299e+03	4.856258e-03	
723	5.284453e+03	4.867750e-03	
724	5.296634e+03	4.879270e-03	
725	5.308844e+03	4.890818e-03	
726	5.321083e+03	4.902394e-03	
727	5.333349e+03	4.914000e-03	
728	5.345644e+03	4.925634e-03	
729	5.357967e+03	4.937296e-03	
730	5.370318e+03	4.948988e-03	
731	5.382698e+03	4.960708e-03	
732	5.395106e+03	4.972457e-03	
733	5.407543e+03	4.984236e-03	
734	5.420009e+03	4.996043e-03	
735	5.432503e+03	5.007880e-03	
736	5.445027e+03	5.019746e-03	
737	5.457579e+03	5.031641e-03	
738	5.470160e+03	5.043566e-03	
739	5.482770e+03	5.055521e-03	
740	5.495409e+03	5.067505e-03	
741	5.508077e+03	5.079518e-03	
742	5.520774e+03	5.091562e-03	
743	5.533501e+03	5.103635e-03	
744	5.546257e+03	5.115739e-03	
745	5.559043e+03	5.127872e-03	
746	5.571857e+03	5.140036e-03	
747	5.584702e+03	5.152230e-03	
748	5.597576e+03	5.164454e-03	
749	5.610480e+03	5.176708e-03	
750	5.623413e+03	5.188993e-03	

Index   frequency       vm(6)           
--------------------------------------------------------------------------------
751	5.636377e+03	5.201308e-03	
752	5.649370e+03	5.213655e-03	
753	5.662393e+03	5.226031e-03	
754	5.675446e+03	5.238439e-03	
755	5.688529e+03	5.250878e-03	
756	5.701643e+03	5.263347e-03	
757	5.714786e+03	5.275848e-03	
758	5.727960e+03	5.288379e-03	
759	5.741165e+03	5.300942e-03	
760	5.754399e+03	5.313537e-03	
761	5.767665e+03	5.326163e-03	
762	5.780960e+03	5.338820e-03	
763	5.794287e+03	5.351509e-03	
764	5.807644e+03	5.364229e-03	
765	5.821032e+03	5.376982e-03	
766	5.834451e+03	5.389766e-03	
767	5.847901e+03	5.402582e-03	
768	5.861382e+03	5.415430e-03	
769	5.874894e+03	5.428311e-03	
770	5.888437e+03	5.441224e-03	
771	5.902011e+03	5.454169e-03	
772	5.915616e+03	5.467146e-03	
773	5.929253e+03	5.480156e-03	
774	5.942922e+03	5.493198e-03	
775	5.956621e+03	5.506274e-03	
776	5.970353e+03	5.519382e-03	
777	5.984116e+03	5.532523e-03	
778	5.997911e+03	5.545697e-03	
779	6.011737e+03	5.558904e-03	
780	6.025596e+03	5.572144e-03	
781	6.039486e+03	5.585417e-03	
782	6.053409e+03	5.598724e-03	
783	6.067363e+03	5.612064e-03	
784	6.081350e+03	5.625438e-03	
785	6.095369e+03	5.638846e-03	
786	6.109420e+03	5.652287e-03	
787	6.123504e+03	5.665762e-03	
788	6.137620e+03	5.679271e-03	
789	6.151769e+03	5.692814e-03	
790	6.165950e+03	5.706391e-03	
791	6.180164e+03	5.720003e-03	
792	6.194411e+03	5.733648e-03	
793	6.208690e+03	5.747329e-03	
794	6.223003e+03	5.761043e-03	
795	6.237348e+03	5.774793e-03	
796	6.251727e+03	5.788577e-03	
797	6.266139e+03	5.802396e-03	
798	6.280584e+03	5.816250e-03	
799	6.295062e+03	5.830139e-03	
800	6.309573e+03	5.844063e-03	
801	6.324119e+03	5.858022e-03	
802	6.338697e+03	5.872017e-03	
803	6.353309e+03	5.886047e-03	
804	6.367955e+03	5.900113e-03	
805	6.382635e+03	5.914214e-03	
806	6.397348e+03	5.928352e-03	
807	6.412096e+03	5.942525e-03	
808	6.426877e+03	5.956734e-03	

Index   frequency       vm(6)           
--------------------------------------------------------------------------------
809	6.441693e+03	5.970979e-03	
810	6.456542e+03	5.985260e-03	
811	6.471426e+03	5.999578e-03	
812	6.486344e+03	6.013932e-03	
813	6.501297e+03	6.028322e-03	
814	6.516284e+03	6.042749e-03	
815	6.531306e+03	6.057213e-03	
816	6.546362e+03	6.071714e-03	
817	6.561453e+03	6.086252e-03	
818	6.576578e+03	6.100826e-03	
819	6.591739e+03	6.115438e-03	
820	6.606934e+03	6.130087e-03	
821	6.622165e+03	6.144774e-03	
822	6.637431e+03	6.159498e-03	
823	6.652732e+03	6.174259e-03	
824	6.668068e+03	6.189059e-03	
825	6.683439e+03	6.203896e-03	
826	6.698846e+03	6.218771e-03	
827	6.714289e+03	6.233684e-03	
828	6.729767e+03	6.248636e-03	
829	6.745280e+03	6.263625e-03	
830	6.760830e+03	6.278653e-03	
831	6.776415e+03	6.293720e-03	
832	6.792036e+03	6.308825e-03	
833	6.807694e+03	6.323969e-03	
834	6.823387e+03	6.339151e-03	
835	6.839116e+03	6.354373e-03	
836	6.854882e+03	6.369634e-03	
837	6.870684e+03	6.384934e-03	
838	6.886523e+03	6.400273e-03	
839	6.902398e+03	6.415652e-03	
840	6.918310e+03	6.431070e-03	
841	6.934258e+03	6.446528e-03	
842	6.950243e+03	6.462026e-03	
843	6.966265e+03	6.477564e-03	
844	6.982324e+03	6.493142e-03	
845	6.998420e+03	6.508759e-03	
846	7.014553e+03	6.524418e-03	
847	7.030723e+03	6.540116e-03	
848	7.046931e+03	6.555855e-03	
849	7.063176e+03	6.571635e-03	
850	7.079458e+03	6.587456e-03	
851	7.095778e+03	6.603317e-03	
852	7.112135e+03	6.619220e-03	
853	7.128530e+03	6.635163e-03	
854	7.144963e+03	6.651148e-03	
855	7.161434e+03	6.667175e-03	
856	7.177943e+03	6.683243e-03	
857	7.194490e+03	6.699352e-03	
858	7.211075e+03	6.715503e-03	
859	7.227698e+03	6.731696e-03	
860	7.244360e+03	6.747932e-03	
861	7.261060e+03	6.764209e-03	
862	7.277798e+03	6.780529e-03	
863	7.294575e+03	6.796891e-03	
864	7.311391e+03	6.813295e-03	
865	7.328245e+03	6.829743e-03	
866	7.345139e+03	6.846233e-03	

Index   frequency       vm(6)           
--------------------------------------------------------------------------------
867	7.362071e+03	6.862766e-03	
868	7.379042e+03	6.879342e-03	
869	7.396053e+03	6.895961e-03	
870	7.413102e+03	6.912624e-03	
871	7.430191e+03	6.929330e-03	
872	7.447320e+03	6.946080e-03	
873	7.464488e+03	6.962874e-03	
874	7.481695e+03	6.979711e-03	
875	7.498942e+03	6.996593e-03	
876	7.516229e+03	7.013518e-03	
877	7.533556e+03	7.030488e-03	
878	7.550922e+03	7.047502e-03	
879	7.568329e+03	7.064561e-03	
880	7.585776e+03	7.081665e-03	
881	7.603263e+03	7.098813e-03	
882	7.620790e+03	7.116007e-03	
883	7.638358e+03	7.133245e-03	
884	7.655966e+03	7.150529e-03	
885	7.673615e+03	7.167859e-03	
886	7.691304e+03	7.185233e-03	
887	7.709035e+03	7.202654e-03	
888	7.726806e+03	7.220120e-03	
889	7.744618e+03	7.237632e-03	
890	7.762471e+03	7.255191e-03	
891	7.780366e+03	7.272796e-03	
892	7.798301e+03	7.290447e-03	
893	7.816278e+03	7.308144e-03	
894	7.834296e+03	7.325889e-03	
895	7.852356e+03	7.343680e-03	
896	7.870458e+03	7.361518e-03	
897	7.888601e+03	7.379404e-03	
898	7.906786e+03	7.397336e-03	
899	7.925013e+03	7.415317e-03	
900	7.943282e+03	7.433344e-03	
901	7.961594e+03	7.451420e-03	
902	7.979947e+03	7.469543e-03	
903	7.998343e+03	7.487715e-03	
904	8.016781e+03	7.505935e-03	
905	8.035261e+03	7.524203e-03	
906	8.053784e+03	7.542519e-03	
907	8.072350e+03	7.560885e-03	
908	8.090959e+03	7.579299e-03	
909	8.109611e+03	7.597762e-03	
910	8.128305e+03	7.616274e-03	
911	8.147043e+03	7.634835e-03	
912	8.165824e+03	7.653446e-03	
913	8.184648e+03	7.672107e-03	
914	8.203515e+03	7.690817e-03	
915	8.222426e+03	7.709578e-03	
916	8.241381e+03	7.728388e-03	
917	8.260379e+03	7.747249e-03	
918	8.279422e+03	7.766160e-03	
919	8.298508e+03	7.785121e-03	
920	8.317638e+03	7.804134e-03	
921	8.336812e+03	7.823197e-03	
922	8.356030e+03	7.842311e-03	
923	8.375293e+03	7.861477e-03	
924	8.394600e+03	7.880694e-03	

Index   frequency       vm(6)           
--------------------------------------------------------------------------------
925	8.413951e+03	7.899962e-03	
926	8.433348e+03	7.919283e-03	
927	8.452788e+03	7.938655e-03	
928	8.472274e+03	7.958079e-03	
929	8.491805e+03	7.977556e-03	
930	8.511380e+03	7.997085e-03	
931	8.531001e+03	8.016666e-03	
932	8.550667e+03	8.036300e-03	
933	8.570378e+03	8.055987e-03	
934	8.590135e+03	8.075728e-03	
935	8.609938e+03	8.095521e-03	
936	8.629785e+03	8.115368e-03	
937	8.649679e+03	8.135269e-03	
938	8.669619e+03	8.155223e-03	
939	8.689604e+03	8.175232e-03	
940	8.709636e+03	8.195294e-03	
941	8.729714e+03	8.215411e-03	
942	8.749838e+03	8.235583e-03	
943	8.770008e+03	8.255809e-03	
944	8.790225e+03	8.276090e-03	
945	8.810489e+03	8.296426e-03	
946	8.830799e+03	8.316817e-03	
947	8.851156e+03	8.337264e-03	
948	8.871560e+03	8.357766e-03	
949	8.892011e+03	8.378324e-03	
950	8.912509e+03	8.398938e-03	
951	8.933055e+03	8.419608e-03	
952	8.953648e+03	8.440335e-03	
953	8.974288e+03	8.461118e-03	
954	8.994976e+03	8.481957e-03	
955	9.015711e+03	8.502854e-03	
956	9.036495e+03	8.523808e-03	
957	9.057326e+03	8.544819e-03	
958	9.078205e+03	8.565887e-03	
959	9.099133e+03	8.587014e-03	
960	9.120108e+03	8.608198e-03	
961	9.141132e+03	8.629440e-03	
962	9.162205e+03	8.650740e-03	
963	9.183326e+03	8.672099e-03	
964	9.204496e+03	8.693516e-03	
965	9.225714e+03	8.714993e-03	
966	9.246982e+03	8.736528e-03	
967	9.268298e+03	8.758122e-03	
968	9.289664e+03	8.779776e-03	
969	9.311079e+03	8.801490e-03	
970	9.332543e+03	8.823264e-03	
971	9.354057e+03	8.845097e-03	
972	9.375620e+03	8.866991e-03	
973	9.397233e+03	8.888945e-03	
974	9.418896e+03	8.910960e-03	
975	9.440609e+03	8.933036e-03	
976	9.462372e+03	8.955172e-03	
977	9.484185e+03	8.977370e-03	
978	9.506048e+03	8.999630e-03	
979	9.527962e+03	9.021951e-03	
980	9.549926e+03	9.044334e-03	
981	9.571941e+03	9.066780e-03	
982	9.594006e+03	9.089287e-03	

Index   frequency       vm(6)           
--------------------------------------------------------------------------------
983	9.616123e+03	9.111857e-03	
984	9.638290e+03	9.134490e-03	
985	9.660509e+03	9.157186e-03	
986	9.682779e+03	9.179945e-03	
987	9.705100e+03	9.202767e-03	
988	9.727472e+03	9.225653e-03	
989	9.749896e+03	9.248603e-03	
990	9.772372e+03	9.271617e-03	
991	9.794900e+03	9.294695e-03	
992	9.817479e+03	9.317838e-03	
993	9.840111e+03	9.341046e-03	
994	9.862795e+03	9.364318e-03	
995	9.885531e+03	9.387655e-03	
996	9.908319e+03	9.411058e-03	
997	9.931160e+03	9.434527e-03	
998	9.954054e+03	9.458061e-03	
999	9.977001e+03	9.481662e-03	
1000	1.000000e+04	9.505329e-03	
1001	1.002305e+04	9.529062e-03	
1002	1.004616e+04	9.552862e-03	
1003	1.006932e+04	9.576729e-03	
1004	1.009253e+04	9.600664e-03	
1005	1.011579e+04	9.624665e-03	
1006	1.013911e+04	9.648735e-03	
1007	1.016249e+04	9.672872e-03	
1008	1.018591e+04	9.697078e-03	
1009	1.020939e+04	9.721352e-03	
1010	1.023293e+04	9.745695e-03	
1011	1.025652e+04	9.770107e-03	
1012	1.028016e+04	9.794587e-03	
1013	1.030386e+04	9.819137e-03	
1014	1.032761e+04	9.843757e-03	
1015	1.035142e+04	9.868447e-03	
1016	1.037528e+04	9.893207e-03	
1017	1.039920e+04	9.918037e-03	
1018	1.042317e+04	9.942938e-03	
1019	1.044720e+04	9.967909e-03	
1020	1.047129e+04	9.992952e-03	
1021	1.049542e+04	1.001807e-02	
1022	1.051962e+04	1.004325e-02	
1023	1.054387e+04	1.006851e-02	
1024	1.056818e+04	1.009384e-02	
1025	1.059254e+04	1.011924e-02	
1026	1.061696e+04	1.014472e-02	
1027	1.064143e+04	1.017026e-02	
1028	1.066596e+04	1.019588e-02	
1029	1.069055e+04	1.022158e-02	
1030	1.071519e+04	1.024735e-02	
1031	1.073989e+04	1.027319e-02	
1032	1.076465e+04	1.029911e-02	
1033	1.078947e+04	1.032510e-02	
1034	1.081434e+04	1.035116e-02	
1035	1.083927e+04	1.037730e-02	
1036	1.086426e+04	1.040352e-02	
1037	1.088930e+04	1.042981e-02	
1038	1.091440e+04	1.045618e-02	
1039	1.093956e+04	1.048262e-02	
1040	1.096478e+04	1.050914e-02	

Index   frequency       vm(6)           
--------------------------------------------------------------------------------
1041	1.099006e+04	1.053573e-02	
1042	1.101539e+04	1.056241e-02	
1043	1.104079e+04	1.058916e-02	
1044	1.106624e+04	1.061599e-02	
1045	1.109175e+04	1.064289e-02	
1046	1.111732e+04	1.066988e-02	
1047	1.114295e+04	1.069694e-02	
1048	1.116863e+04	1.072408e-02	
1049	1.119438e+04	1.075130e-02	
1050	1.122018e+04	1.077860e-02	
1051	1.124605e+04	1.080597e-02	
1052	1.127197e+04	1.083343e-02	
1053	1.129796e+04	1.086097e-02	
1054	1.132400e+04	1.088859e-02	
1055	1.135011e+04	1.091629e-02	
1056	1.137627e+04	1.094407e-02	
1057	1.140250e+04	1.097193e-02	
1058	1.142878e+04	1.099987e-02	
1059	1.145513e+04	1.102790e-02	
1060	1.148154e+04	1.105600e-02	
1061	1.150800e+04	1.108419e-02	
1062	1.153453e+04	1.111246e-02	
1063	1.156112e+04	1.114082e-02	
1064	1.158777e+04	1.116926e-02	
1065	1.161449e+04	1.119778e-02	
1066	1.164126e+04	1.122638e-02	
1067	1.166810e+04	1.125507e-02	
1068	1.169499e+04	1.128385e-02	
1069	1.172195e+04	1.131271e-02	
1070	1.174898e+04	1.134165e-02	
1071	1.177606e+04	1.137068e-02	
1072	1.180321e+04	1.139980e-02	
1073	1.183042e+04	1.142900e-02	
1074	1.185769e+04	1.145829e-02	
1075	1.188502e+04	1.148766e-02	
1076	1.191242e+04	1.151713e-02	
1077	1.193988e+04	1.154668e-02	
1078	1.196741e+04	1.157632e-02	
1079	1.199499e+04	1.160604e-02	
1080	1.202264e+04	1.163586e-02	
1081	1.205036e+04	1.166576e-02	
1082	1.207814e+04	1.169575e-02	
1083	1.210598e+04	1.172583e-02	
1084	1.213389e+04	1.175600e-02	
1085	1.216186e+04	1.178627e-02	
1086	1.218990e+04	1.181662e-02	
1087	1.221800e+04	1.184706e-02	
1088	1.224616e+04	1.187759e-02	
1089	1.227439e+04	1.190822e-02	
1090	1.230269e+04	1.193894e-02	
1091	1.233105e+04	1.196975e-02	
1092	1.235947e+04	1.200065e-02	
1093	1.238797e+04	1.203164e-02	
1094	1.241652e+04	1.206273e-02	
1095	1.244515e+04	1.209391e-02	
1096	1.247384e+04	1.212519e-02	
1097	1.250259e+04	1.215656e-02	
1098	1.253141e+04	1.218802e-02	

Index   frequency       vm(6)           
--------------------------------------------------------------------------------
1099	1.256030e+04	1.221958e-02	
1100	1.258925e+04	1.225123e-02	
1101	1.261828e+04	1.228298e-02	
1102	1.264736e+04	1.231483e-02	
1103	1.267652e+04	1.234677e-02	
1104	1.270574e+04	1.237881e-02	
1105	1.273503e+04	1.241095e-02	
1106	1.276439e+04	1.244318e-02	
1107	1.279381e+04	1.247551e-02	
1108	1.282331e+04	1.250794e-02	
1109	1.285287e+04	1.254047e-02	
1110	1.288250e+04	1.257310e-02	
1111	1.291219e+04	1.260583e-02	
1112	1.294196e+04	1.263865e-02	
1113	1.297179e+04	1.267158e-02	
1114	1.300170e+04	1.270461e-02	
1115	1.303167e+04	1.273774e-02	
1116	1.306171e+04	1.277097e-02	
1117	1.309182e+04	1.280430e-02	
1118	1.312200e+04	1.283773e-02	
1119	1.315225e+04	1.287127e-02	
1120	1.318257e+04	1.290491e-02	
1121	1.321296e+04	1.293865e-02	
1122	1.324342e+04	1.297250e-02	
1123	1.327394e+04	1.300645e-02	
1124	1.330454e+04	1.304050e-02	
1125	1.333521e+04	1.307466e-02	
1126	1.336596e+04	1.310893e-02	
1127	1.339677e+04	1.314330e-02	
1128	1.342765e+04	1.317778e-02	
1129	1.345860e+04	1.321236e-02	
1130	1.348963e+04	1.324705e-02	
1131	1.352073e+04	1.328185e-02	
1132	1.355189e+04	1.331675e-02	
1133	1.358313e+04	1.335177e-02	
1134	1.361445e+04	1.338689e-02	
1135	1.364583e+04	1.342212e-02	
1136	1.367729e+04	1.345746e-02	
1137	1.370882e+04	1.349291e-02	
1138	1.374042e+04	1.352847e-02	
1139	1.377209e+04	1.356415e-02	
1140	1.380384e+04	1.359993e-02	
1141	1.383566e+04	1.363582e-02	
1142	1.386756e+04	1.367183e-02	
1143	1.389953e+04	1.370795e-02	
1144	1.393157e+04	1.374418e-02	
1145	1.396368e+04	1.378053e-02	
1146	1.399587e+04	1.381699e-02	
1147	1.402814e+04	1.385356e-02	
1148	1.406048e+04	1.389025e-02	
1149	1.409289e+04	1.392705e-02	
1150	1.412538e+04	1.396397e-02	
1151	1.415794e+04	1.400101e-02	
1152	1.419058e+04	1.403816e-02	
1153	1.422329e+04	1.407543e-02	
1154	1.425608e+04	1.411282e-02	
1155	1.428894e+04	1.415032e-02	
1156	1.432188e+04	1.418794e-02	

Index   frequency       vm(6)           
--------------------------------------------------------------------------------
1157	1.435489e+04	1.422569e-02	
1158	1.438799e+04	1.426355e-02	
1159	1.442115e+04	1.430153e-02	
1160	1.445440e+04	1.433963e-02	
1161	1.448772e+04	1.437785e-02	
1162	1.452112e+04	1.441620e-02	
1163	1.455459e+04	1.445466e-02	
1164	1.458814e+04	1.449325e-02	
1165	1.462177e+04	1.453196e-02	
1166	1.465548e+04	1.457079e-02	
1167	1.468926e+04	1.460975e-02	
1168	1.472313e+04	1.464883e-02	
1169	1.475707e+04	1.468804e-02	
1170	1.479108e+04	1.472737e-02	
1171	1.482518e+04	1.476683e-02	
1172	1.485936e+04	1.480641e-02	
1173	1.489361e+04	1.484612e-02	
1174	1.492794e+04	1.488596e-02	
1175	1.496236e+04	1.492592e-02	
1176	1.499685e+04	1.496601e-02	
1177	1.503142e+04	1.500624e-02	
1178	1.506607e+04	1.504659e-02	
1179	1.510080e+04	1.508707e-02	
1180	1.513561e+04	1.512768e-02	
1181	1.517050e+04	1.516842e-02	
1182	1.520548e+04	1.520929e-02	
1183	1.524053e+04	1.525030e-02	
1184	1.527566e+04	1.529144e-02	
1185	1.531087e+04	1.533271e-02	
1186	1.534617e+04	1.537411e-02	
1187	1.538155e+04	1.541565e-02	
1188	1.541700e+04	1.545732e-02	
1189	1.545254e+04	1.549913e-02	
1190	1.548817e+04	1.554108e-02	
1191	1.552387e+04	1.558316e-02	
1192	1.555966e+04	1.562537e-02	
1193	1.559553e+04	1.566773e-02	
1194	1.563148e+04	1.571022e-02	
1195	1.566751e+04	1.575285e-02	
1196	1.570363e+04	1.579562e-02	
1197	1.573983e+04	1.583853e-02	
1198	1.577611e+04	1.588158e-02	
1199	1.581248e+04	1.592476e-02	
1200	1.584893e+04	1.596810e-02	
1201	1.588547e+04	1.601157e-02	
1202	1.592209e+04	1.605518e-02	
1203	1.595879e+04	1.609894e-02	
1204	1.599558e+04	1.614284e-02	
1205	1.603245e+04	1.618689e-02	
1206	1.606941e+04	1.623108e-02	
1207	1.610646e+04	1.627542e-02	
1208	1.614359e+04	1.631990e-02	
1209	1.618080e+04	1.636453e-02	
1210	1.621810e+04	1.640931e-02	
1211	1.625549e+04	1.645423e-02	
1212	1.629296e+04	1.649930e-02	
1213	1.633052e+04	1.654452e-02	
1214	1.636817e+04	1.658989e-02	

Index   frequency       vm(6)           
--------------------------------------------------------------------------------
1215	1.640590e+04	1.663541e-02	
1216	1.644372e+04	1.668109e-02	
1217	1.648162e+04	1.672691e-02	
1218	1.651962e+04	1.677289e-02	
1219	1.655770e+04	1.681901e-02	
1220	1.659587e+04	1.686530e-02	
1221	1.663413e+04	1.691173e-02	
1222	1.667247e+04	1.695832e-02	
1223	1.671091e+04	1.700507e-02	
1224	1.674943e+04	1.705197e-02	
1225	1.678804e+04	1.709902e-02	
1226	1.682674e+04	1.714624e-02	
1227	1.686553e+04	1.719361e-02	
1228	1.690441e+04	1.724114e-02	
1229	1.694338e+04	1.728883e-02	
1230	1.698244e+04	1.733668e-02	
1231	1.702159e+04	1.738469e-02	
1232	1.706082e+04	1.743287e-02	
1233	1.710015e+04	1.748120e-02	
1234	1.713957e+04	1.752969e-02	
1235	1.717908e+04	1.757835e-02	
1236	1.721869e+04	1.762718e-02	
1237	1.725838e+04	1.767616e-02	
1238	1.729816e+04	1.772532e-02	
1239	1.733804e+04	1.777463e-02	
1240	1.737801e+04	1.782412e-02	
1241	1.741807e+04	1.787377e-02	
1242	1.745822e+04	1.792359e-02	
1243	1.749847e+04	1.797358e-02	
1244	1.753881e+04	1.802374e-02	
1245	1.757924e+04	1.807407e-02	
1246	1.761976e+04	1.812456e-02	
1247	1.766038e+04	1.817523e-02	
1248	1.770109e+04	1.822608e-02	
1249	1.774189e+04	1.827709e-02	
1250	1.778279e+04	1.832828e-02	
1251	1.782379e+04	1.837964e-02	
1252	1.786488e+04	1.843118e-02	
1253	1.790606e+04	1.848290e-02	
1254	1.794734e+04	1.853479e-02	
1255	1.798871e+04	1.858685e-02	
1256	1.803018e+04	1.863910e-02	
1257	1.807174e+04	1.869153e-02	
1258	1.811340e+04	1.874413e-02	
1259	1.815516e+04	1.879691e-02	
1260	1.819701e+04	1.884988e-02	
1261	1.823896e+04	1.890303e-02	
1262	1.828100e+04	1.895636e-02	
1263	1.832314e+04	1.900987e-02	
1264	1.836538e+04	1.906357e-02	
1265	1.840772e+04	1.911745e-02	
1266	1.845015e+04	1.917152e-02	
1267	1.849269e+04	1.922577e-02	
1268	1.853532e+04	1.928021e-02	
1269	1.857804e+04	1.933484e-02	
1270	1.862087e+04	1.938966e-02	
1271	1.866380e+04	1.944467e-02	
1272	1.870682e+04	1.949986e-02	

Index   frequency       vm(6)           
--------------------------------------------------------------------------------
1273	1.874995e+04	1.955525e-02	
1274	1.879317e+04	1.961084e-02	
1275	1.883649e+04	1.966661e-02	
1276	1.887991e+04	1.972258e-02	
1277	1.892344e+04	1.977874e-02	
1278	1.896706e+04	1.983510e-02	
1279	1.901078e+04	1.989165e-02	
1280	1.905461e+04	1.994840e-02	
1281	1.909853e+04	2.000535e-02	
1282	1.914256e+04	2.006249e-02	
1283	1.918669e+04	2.011984e-02	
1284	1.923092e+04	2.017739e-02	
1285	1.927525e+04	2.023513e-02	
1286	1.931968e+04	2.029308e-02	
1287	1.936422e+04	2.035123e-02	
1288	1.940886e+04	2.040959e-02	
1289	1.945360e+04	2.046815e-02	
1290	1.949845e+04	2.052692e-02	
1291	1.954339e+04	2.058589e-02	
1292	1.958845e+04	2.064507e-02	
1293	1.963360e+04	2.070445e-02	
1294	1.967886e+04	2.076405e-02	
1295	1.972423e+04	2.082385e-02	
1296	1.976970e+04	2.088387e-02	
1297	1.981527e+04	2.094410e-02	
1298	1.986095e+04	2.100454e-02	
1299	1.990673e+04	2.106519e-02	
1300	1.995262e+04	2.112606e-02	
1301	1.999862e+04	2.118714e-02	
1302	2.004472e+04	2.124844e-02	
1303	2.009093e+04	2.130996e-02	
1304	2.013724e+04	2.137169e-02	
1305	2.018366e+04	2.143365e-02	
1306	2.023019e+04	2.149582e-02	
1307	2.027683e+04	2.155821e-02	
1308	2.032357e+04	2.162083e-02	
1309	2.037042e+04	2.168366e-02	
1310	2.041738e+04	2.174673e-02	
1311	2.046445e+04	2.181001e-02	
1312	2.051162e+04	2.187352e-02	
1313	2.055891e+04	2.193726e-02	
1314	2.060630e+04	2.200122e-02	
1315	2.065380e+04	2.206542e-02	
1316	2.070141e+04	2.212984e-02	
1317	2.074914e+04	2.219449e-02	
1318	2.079697e+04	2.225938e-02	
1319	2.084491e+04	2.232449e-02	
1320	2.089296e+04	2.238984e-02	
1321	2.094112e+04	2.245543e-02	
1322	2.098940e+04	2.252125e-02	
1323	2.103778e+04	2.258730e-02	
1324	2.108628e+04	2.265360e-02	
1325	2.113489e+04	2.272013e-02	
1326	2.118361e+04	2.278690e-02	
1327	2.123244e+04	2.285391e-02	
1328	2.128139e+04	2.292116e-02	
1329	2.133045e+04	2.298865e-02	
1330	2.137962e+04	2.305639e-02	

Index   frequency       vm(6)           
--------------------------------------------------------------------------------
1331	2.142891e+04	2.312437e-02	
1332	2.147830e+04	2.319260e-02	
1333	2.152782e+04	2.326108e-02	
1334	2.157744e+04	2.332980e-02	
1335	2.162719e+04	2.339877e-02	
1336	2.167704e+04	2.346799e-02	
1337	2.172701e+04	2.353746e-02	
1338	2.177710e+04	2.360718e-02	
1339	2.182730e+04	2.367716e-02	
1340	2.187762e+04	2.374739e-02	
1341	2.192805e+04	2.381787e-02	
1342	2.197860e+04	2.388861e-02	
1343	2.202926e+04	2.395961e-02	
1344	2.208005e+04	2.403087e-02	
1345	2.213095e+04	2.410239e-02	
1346	2.218196e+04	2.417416e-02	
1347	2.223310e+04	2.424620e-02	
1348	2.228435e+04	2.431850e-02	
1349	2.233572e+04	2.439107e-02	
1350	2.238721e+04	2.446390e-02	
1351	2.243882e+04	2.453699e-02	
1352	2.249055e+04	2.461036e-02	
1353	2.254239e+04	2.468399e-02	
1354	2.259436e+04	2.475789e-02	
1355	2.264644e+04	2.483207e-02	
1356	2.269865e+04	2.490651e-02	
1357	2.275097e+04	2.498123e-02	
1358	2.280342e+04	2.505622e-02	
1359	2.285599e+04	2.513149e-02	
1360	2.290868e+04	2.520703e-02	
1361	2.296149e+04	2.528286e-02	
1362	2.301442e+04	2.535896e-02	
1363	2.306747e+04	2.543534e-02	
1364	2.312065e+04	2.551200e-02	
1365	2.317395e+04	2.558895e-02	
1366	2.322737e+04	2.566618e-02	
1367	2.328091e+04	2.574369e-02	
1368	2.333458e+04	2.582149e-02	
1369	2.338837e+04	2.589958e-02	
1370	2.344229e+04	2.597796e-02	
1371	2.349633e+04	2.605662e-02	
1372	2.355049e+04	2.613558e-02	
1373	2.360478e+04	2.621483e-02	
1374	2.365920e+04	2.629438e-02	
1375	2.371374e+04	2.637421e-02	
1376	2.376840e+04	2.645435e-02	
1377	2.382319e+04	2.653478e-02	
1378	2.387811e+04	2.661551e-02	
1379	2.393316e+04	2.669655e-02	
1380	2.398833e+04	2.677788e-02	
1381	2.404363e+04	2.685951e-02	
1382	2.409905e+04	2.694145e-02	
1383	2.415461e+04	2.702370e-02	
1384	2.421029e+04	2.710625e-02	
1385	2.426610e+04	2.718911e-02	
1386	2.432204e+04	2.727227e-02	
1387	2.437811e+04	2.735575e-02	
1388	2.443431e+04	2.743954e-02	

Index   frequency       vm(6)           
--------------------------------------------------------------------------------
1389	2.449063e+04	2.752365e-02	
1390	2.454709e+04	2.760806e-02	
1391	2.460368e+04	2.769280e-02	
1392	2.466039e+04	2.777785e-02	
1393	2.471724e+04	2.786322e-02	
1394	2.477422e+04	2.794891e-02	
1395	2.483133e+04	2.803492e-02	
1396	2.488857e+04	2.812125e-02	
1397	2.494595e+04	2.820790e-02	
1398	2.500345e+04	2.829489e-02	
1399	2.506109e+04	2.838220e-02	
1400	2.511886e+04	2.846983e-02	
1401	2.517677e+04	2.855780e-02	
1402	2.523481e+04	2.864610e-02	
1403	2.529298e+04	2.873472e-02	
1404	2.535129e+04	2.882369e-02	
1405	2.540973e+04	2.891299e-02	
1406	2.546830e+04	2.900262e-02	
1407	2.552701e+04	2.909259e-02	
1408	2.558586e+04	2.918291e-02	
1409	2.564484e+04	2.927356e-02	
1410	2.570396e+04	2.936456e-02	
1411	2.576321e+04	2.945590e-02	
1412	2.582260e+04	2.954758e-02	
1413	2.588213e+04	2.963961e-02	
1414	2.594179e+04	2.973199e-02	
1415	2.600160e+04	2.982472e-02	
1416	2.606154e+04	2.991780e-02	
1417	2.612161e+04	3.001124e-02	
1418	2.618183e+04	3.010503e-02	
1419	2.624219e+04	3.019917e-02	
1420	2.630268e+04	3.029367e-02	
1421	2.636331e+04	3.038853e-02	
1422	2.642409e+04	3.048375e-02	
1423	2.648500e+04	3.057933e-02	
1424	2.654606e+04	3.067528e-02	
1425	2.660725e+04	3.077159e-02	
1426	2.666859e+04	3.086826e-02	
1427	2.673006e+04	3.096531e-02	
1428	2.679168e+04	3.106272e-02	
1429	2.685344e+04	3.116051e-02	
1430	2.691535e+04	3.125867e-02	
1431	2.697739e+04	3.135720e-02	
1432	2.703958e+04	3.145611e-02	
1433	2.710192e+04	3.155539e-02	
1434	2.716439e+04	3.165506e-02	
1435	2.722701e+04	3.175510e-02	
1436	2.728978e+04	3.185553e-02	
1437	2.735269e+04	3.195634e-02	
1438	2.741574e+04	3.205754e-02	
1439	2.747894e+04	3.215912e-02	
1440	2.754229e+04	3.226109e-02	
1441	2.760578e+04	3.236346e-02	
1442	2.766942e+04	3.246621e-02	
1443	2.773320e+04	3.256936e-02	
1444	2.779713e+04	3.267290e-02	
1445	2.786121e+04	3.277685e-02	
1446	2.792544e+04	3.288119e-02	

Index   frequency       vm(6)           
--------------------------------------------------------------------------------
1447	2.798981e+04	3.298593e-02	
1448	2.805434e+04	3.309107e-02	
1449	2.811901e+04	3.319662e-02	
1450	2.818383e+04	3.330257e-02	
1451	2.824880e+04	3.340893e-02	
1452	2.831392e+04	3.351570e-02	
1453	2.837919e+04	3.362287e-02	
1454	2.844461e+04	3.373047e-02	
1455	2.851018e+04	3.383847e-02	
1456	2.857591e+04	3.394689e-02	
1457	2.864178e+04	3.405573e-02	
1458	2.870781e+04	3.416499e-02	
1459	2.877398e+04	3.427467e-02	
1460	2.884032e+04	3.438477e-02	
1461	2.890680e+04	3.449530e-02	
1462	2.897344e+04	3.460625e-02	
1463	2.904023e+04	3.471763e-02	
1464	2.910717e+04	3.482944e-02	
1465	2.917427e+04	3.494169e-02	
1466	2.924152e+04	3.505437e-02	
1467	2.930893e+04	3.516748e-02	
1468	2.937650e+04	3.528103e-02	
1469	2.944422e+04	3.539502e-02	
1470	2.951209e+04	3.550945e-02	
1471	2.958012e+04	3.562432e-02	
1472	2.964831e+04	3.573964e-02	
1473	2.971666e+04	3.585540e-02	
1474	2.978516e+04	3.597161e-02	
1475	2.985383e+04	3.608828e-02	
1476	2.992265e+04	3.620539e-02	
1477	2.999163e+04	3.632296e-02	
1478	3.006076e+04	3.644098e-02	
1479	3.013006e+04	3.655947e-02	
1480	3.019952e+04	3.667841e-02	
1481	3.026913e+04	3.679781e-02	
1482	3.033891e+04	3.691768e-02	
1483	3.040885e+04	3.703801e-02	
1484	3.047895e+04	3.715881e-02	
1485	3.054921e+04	3.728008e-02	
1486	3.061963e+04	3.740182e-02	
1487	3.069022e+04	3.752404e-02	
1488	3.076097e+04	3.764673e-02	
1489	3.083188e+04	3.776989e-02	
1490	3.090295e+04	3.789354e-02	
1491	3.097419e+04	3.801767e-02	
1492	3.104560e+04	3.814228e-02	
1493	3.111716e+04	3.826737e-02	
1494	3.118890e+04	3.839295e-02	
1495	3.126079e+04	3.851902e-02	
1496	3.133286e+04	3.864559e-02	
1497	3.140509e+04	3.877264e-02	
1498	3.147748e+04	3.890019e-02	
1499	3.155005e+04	3.902824e-02	
1500	3.162278e+04	3.915679e-02	
1501	3.169567e+04	3.928584e-02	
1502	3.176874e+04	3.941539e-02	
1503	3.184198e+04	3.954545e-02	
1504	3.191538e+04	3.967602e-02	

Index   frequency       vm(6)           
--------------------------------------------------------------------------------
1505	3.198895e+04	3.980709e-02	
1506	3.206269e+04	3.993868e-02	
1507	3.213661e+04	4.007078e-02	
1508	3.221069e+04	4.020340e-02	
1509	3.228494e+04	4.033653e-02	
1510	3.235937e+04	4.047019e-02	
1511	3.243396e+04	4.060436e-02	
1512	3.250873e+04	4.073907e-02	
1513	3.258367e+04	4.087430e-02	
1514	3.265878e+04	4.101005e-02	
1515	3.273407e+04	4.114634e-02	
1516	3.280953e+04	4.128316e-02	
1517	3.288516e+04	4.142052e-02	
1518	3.296097e+04	4.155842e-02	
1519	3.303695e+04	4.169685e-02	
1520	3.311311e+04	4.183583e-02	
1521	3.318945e+04	4.197535e-02	
1522	3.326596e+04	4.211542e-02	
1523	3.334264e+04	4.225603e-02	
1524	3.341950e+04	4.239720e-02	
1525	3.349654e+04	4.253892e-02	
1526	3.357376e+04	4.268119e-02	
1527	3.365116e+04	4.282402e-02	
1528	3.372873e+04	4.296741e-02	
1529	3.380648e+04	4.311137e-02	
1530	3.388442e+04	4.325589e-02	
1531	3.396253e+04	4.340097e-02	
1532	3.404082e+04	4.354662e-02	
1533	3.411929e+04	4.369285e-02	
1534	3.419794e+04	4.383965e-02	
1535	3.427678e+04	4.398702e-02	
1536	3.435579e+04	4.413497e-02	
1537	3.443499e+04	4.428350e-02	
1538	3.451437e+04	4.443262e-02	
1539	3.459394e+04	4.458232e-02	
1540	3.467369e+04	4.473261e-02	
1541	3.475362e+04	4.488349e-02	
1542	3.483373e+04	4.503496e-02	
1543	3.491403e+04	4.518702e-02	
1544	3.499452e+04	4.533968e-02	
1545	3.507519e+04	4.549294e-02	
1546	3.515604e+04	4.564681e-02	
1547	3.523709e+04	4.580127e-02	
1548	3.531832e+04	4.595635e-02	
1549	3.539973e+04	4.611203e-02	
1550	3.548134e+04	4.626832e-02	
1551	3.556313e+04	4.642523e-02	
1552	3.564511e+04	4.658275e-02	
1553	3.572728e+04	4.674090e-02	
1554	3.580964e+04	4.689966e-02	
1555	3.589219e+04	4.705905e-02	
1556	3.597493e+04	4.721906e-02	
1557	3.605786e+04	4.737971e-02	
1558	3.614099e+04	4.754098e-02	
1559	3.622430e+04	4.770289e-02	
1560	3.630781e+04	4.786543e-02	
1561	3.639150e+04	4.802861e-02	
1562	3.647539e+04	4.819244e-02	

Index   frequency       vm(6)           
--------------------------------------------------------------------------------
1563	3.655948e+04	4.835690e-02	
1564	3.664376e+04	4.852202e-02	
1565	3.672823e+04	4.868778e-02	
1566	3.681290e+04	4.885419e-02	
1567	3.689776e+04	4.902126e-02	
1568	3.698282e+04	4.918899e-02	
1569	3.706807e+04	4.935737e-02	
1570	3.715352e+04	4.952642e-02	
1571	3.723917e+04	4.969613e-02	
1572	3.732502e+04	4.986650e-02	
1573	3.741106e+04	5.003755e-02	
1574	3.749730e+04	5.020927e-02	
1575	3.758374e+04	5.038166e-02	
1576	3.767038e+04	5.055473e-02	
1577	3.775722e+04	5.072848e-02	
1578	3.784426e+04	5.090291e-02	
1579	3.793150e+04	5.107803e-02	
1580	3.801894e+04	5.125384e-02	
1581	3.810658e+04	5.143034e-02	
1582	3.819443e+04	5.160753e-02	
1583	3.828247e+04	5.178541e-02	
1584	3.837072e+04	5.196400e-02	
1585	3.845918e+04	5.214329e-02	
1586	3.854784e+04	5.232328e-02	
1587	3.863670e+04	5.250398e-02	
1588	3.872576e+04	5.268539e-02	
1589	3.881504e+04	5.286751e-02	
1590	3.890451e+04	5.305034e-02	
1591	3.899420e+04	5.323390e-02	
1592	3.908409e+04	5.341817e-02	
1593	3.917419e+04	5.360317e-02	
1594	3.926449e+04	5.378889e-02	
1595	3.935501e+04	5.397535e-02	
1596	3.944573e+04	5.416253e-02	
1597	3.953666e+04	5.435045e-02	
1598	3.962780e+04	5.453911e-02	
1599	3.971915e+04	5.472851e-02	
1600	3.981072e+04	5.491865e-02	
1601	3.990249e+04	5.510953e-02	
1602	3.999447e+04	5.530117e-02	
1603	4.008667e+04	5.549356e-02	
1604	4.017908e+04	5.568670e-02	
1605	4.027170e+04	5.588060e-02	
1606	4.036454e+04	5.607526e-02	
1607	4.045759e+04	5.627068e-02	
1608	4.055085e+04	5.646687e-02	
1609	4.064433e+04	5.666383e-02	
1610	4.073803e+04	5.686156e-02	
1611	4.083194e+04	5.706006e-02	
1612	4.092607e+04	5.725934e-02	
1613	4.102041e+04	5.745941e-02	
1614	4.111497e+04	5.766025e-02	
1615	4.120975e+04	5.786189e-02	
1616	4.130475e+04	5.806431e-02	
1617	4.139997e+04	5.826752e-02	
1618	4.149540e+04	5.847154e-02	
1619	4.159106e+04	5.867634e-02	
1620	4.168694e+04	5.888196e-02	

Index   frequency       vm(6)           
--------------------------------------------------------------------------------
1621	4.178304e+04	5.908837e-02	
1622	4.187936e+04	5.929559e-02	
1623	4.197590e+04	5.950363e-02	
1624	4.207266e+04	5.971247e-02	
1625	4.216965e+04	5.992214e-02	
1626	4.226686e+04	6.013262e-02	
1627	4.236430e+04	6.034392e-02	
1628	4.246196e+04	6.055605e-02	
1629	4.255984e+04	6.076901e-02	
1630	4.265795e+04	6.098280e-02	
1631	4.275629e+04	6.119743e-02	
1632	4.285485e+04	6.141290e-02	
1633	4.295364e+04	6.162920e-02	
1634	4.305266e+04	6.184635e-02	
1635	4.315191e+04	6.206435e-02	
1636	4.325138e+04	6.228319e-02	
1637	4.335109e+04	6.250290e-02	
1638	4.345102e+04	6.272345e-02	
1639	4.355119e+04	6.294487e-02	
1640	4.365158e+04	6.316715e-02	
1641	4.375221e+04	6.339030e-02	
1642	4.385307e+04	6.361431e-02	
1643	4.395416e+04	6.383920e-02	
1644	4.405549e+04	6.406496e-02	
1645	4.415704e+04	6.429161e-02	
1646	4.425884e+04	6.451913e-02	
1647	4.436086e+04	6.474754e-02	
1648	4.446313e+04	6.497684e-02	
1649	4.456562e+04	6.520703e-02	
1650	4.466836e+04	6.543812e-02	
1651	4.477133e+04	6.567010e-02	
1652	4.487454e+04	6.590298e-02	
1653	4.497799e+04	6.613677e-02	
1654	4.508167e+04	6.637147e-02	
1655	4.518559e+04	6.660708e-02	
1656	4.528976e+04	6.684360e-02	
1657	4.539416e+04	6.708104e-02	
1658	4.549881e+04	6.731940e-02	
1659	4.560369e+04	6.755869e-02	
1660	4.570882e+04	6.779890e-02	
1661	4.581419e+04	6.804005e-02	
1662	4.591980e+04	6.828213e-02	
1663	4.602566e+04	6.852515e-02	
1664	4.613176e+04	6.876910e-02	
1665	4.623810e+04	6.901400e-02	
1666	4.634469e+04	6.925985e-02	
1667	4.645153e+04	6.950666e-02	
1668	4.655861e+04	6.975441e-02	
1669	4.666594e+04	7.000312e-02	
1670	4.677351e+04	7.025280e-02	
1671	4.688134e+04	7.050344e-02	
1672	4.698941e+04	7.075504e-02	
1673	4.709773e+04	7.100762e-02	
1674	4.720630e+04	7.126117e-02	
1675	4.731513e+04	7.151570e-02	
1676	4.742420e+04	7.177122e-02	
1677	4.753352e+04	7.202771e-02	
1678	4.764310e+04	7.228520e-02	

Index   frequency       vm(6)           
--------------------------------------------------------------------------------
1679	4.775293e+04	7.254368e-02	
1680	4.786301e+04	7.280315e-02	
1681	4.797334e+04	7.306362e-02	
1682	4.808393e+04	7.332510e-02	
1683	4.819478e+04	7.358758e-02	
1684	4.830588e+04	7.385107e-02	
1685	4.841724e+04	7.411557e-02	
1686	4.852885e+04	7.438109e-02	
1687	4.864072e+04	7.464763e-02	
1688	4.875285e+04	7.491519e-02	
1689	4.886524e+04	7.518378e-02	
1690	4.897788e+04	7.545340e-02	
1691	4.909079e+04	7.572405e-02	
1692	4.920395e+04	7.599574e-02	
1693	4.931738e+04	7.626848e-02	
1694	4.943107e+04	7.654225e-02	
1695	4.954502e+04	7.681708e-02	
1696	4.965923e+04	7.709295e-02	
1697	4.977371e+04	7.736988e-02	
1698	4.988845e+04	7.764788e-02	
1699	5.000345e+04	7.792693e-02	
1700	5.011872e+04	7.820705e-02	
1701	5.023426e+04	7.848824e-02	
1702	5.035006e+04	7.877050e-02	
1703	5.046613e+04	7.905384e-02	
1704	5.058247e+04	7.933826e-02	
1705	5.069907e+04	7.962376e-02	
1706	5.081594e+04	7.991035e-02	
1707	5.093309e+04	8.019804e-02	
1708	5.105050e+04	8.048682e-02	
1709	5.116818e+04	8.077669e-02	
1710	5.128614e+04	8.106767e-02	
1711	5.140437e+04	8.135976e-02	
1712	5.152286e+04	8.165296e-02	
1713	5.164164e+04	8.194727e-02	
1714	5.176068e+04	8.224269e-02	
1715	5.188000e+04	8.253924e-02	
1716	5.199960e+04	8.283692e-02	
1717	5.211947e+04	8.313572e-02	
1718	5.223962e+04	8.343565e-02	
1719	5.236004e+04	8.373672e-02	
1720	5.248075e+04	8.403893e-02	
1721	5.260173e+04	8.434228e-02	
1722	5.272299e+04	8.464678e-02	
1723	5.284453e+04	8.495243e-02	
1724	5.296634e+04	8.525923e-02	
1725	5.308844e+04	8.556720e-02	
1726	5.321083e+04	8.587632e-02	
1727	5.333349e+04	8.618661e-02	
1728	5.345644e+04	8.649807e-02	
1729	5.357967e+04	8.681071e-02	
1730	5.370318e+04	8.712452e-02	
1731	5.382698e+04	8.743951e-02	
1732	5.395106e+04	8.775569e-02	
1733	5.407543e+04	8.807306e-02	
1734	5.420009e+04	8.839162e-02	
1735	5.432503e+04	8.871137e-02	
1736	5.445027e+04	8.903233e-02	

Index   frequency       vm(6)           
--------------------------------------------------------------------------------
1737	5.457579e+04	8.935449e-02	
1738	5.470160e+04	8.967786e-02	
1739	5.482770e+04	9.000244e-02	
1740	5.495409e+04	9.032823e-02	
1741	5.508077e+04	9.065525e-02	
1742	5.520774e+04	9.098349e-02	
1743	5.533501e+04	9.131295e-02	
1744	5.546257e+04	9.164365e-02	
1745	5.559043e+04	9.197558e-02	
1746	5.571857e+04	9.230875e-02	
1747	5.584702e+04	9.264316e-02	
1748	5.597576e+04	9.297882e-02	
1749	5.610480e+04	9.331573e-02	
1750	5.623413e+04	9.365390e-02	
1751	5.636377e+04	9.399332e-02	
1752	5.649370e+04	9.433401e-02	
1753	5.662393e+04	9.467596e-02	
1754	5.675446e+04	9.501919e-02	
1755	5.688529e+04	9.536368e-02	
1756	5.701643e+04	9.570946e-02	
1757	5.714786e+04	9.605652e-02	
1758	5.727960e+04	9.640486e-02	
1759	5.741165e+04	9.675450e-02	
1760	5.754399e+04	9.710542e-02	
1761	5.767665e+04	9.745765e-02	
1762	5.780960e+04	9.781118e-02	
1763	5.794287e+04	9.816601e-02	
1764	5.807644e+04	9.852216e-02	
1765	5.821032e+04	9.887961e-02	
1766	5.834451e+04	9.923839e-02	
1767	5.847901e+04	9.959849e-02	
1768	5.861382e+04	9.995991e-02	
1769	5.874894e+04	1.003227e-01	
1770	5.888437e+04	1.006868e-01	
1771	5.902011e+04	1.010522e-01	
1772	5.915616e+04	1.014189e-01	
1773	5.929253e+04	1.017871e-01	
1774	5.942922e+04	1.021565e-01	
1775	5.956621e+04	1.025273e-01	
1776	5.970353e+04	1.028995e-01	
1777	5.984116e+04	1.032731e-01	
1778	5.997911e+04	1.036480e-01	
1779	6.011737e+04	1.040242e-01	
1780	6.025596e+04	1.044019e-01	
1781	6.039486e+04	1.047809e-01	
1782	6.053409e+04	1.051613e-01	
1783	6.067363e+04	1.055431e-01	
1784	6.081350e+04	1.059263e-01	
1785	6.095369e+04	1.063109e-01	
1786	6.109420e+04	1.066969e-01	
1787	6.123504e+04	1.070843e-01	
1788	6.137620e+04	1.074731e-01	
1789	6.151769e+04	1.078633e-01	
1790	6.165950e+04	1.082549e-01	
1791	6.180164e+04	1.086479e-01	
1792	6.194411e+04	1.090424e-01	
1793	6.208690e+04	1.094383e-01	
1794	6.223003e+04	1.098356e-01	

Index   frequency       vm(6)           
--------------------------------------------------------------------------------
1795	6.237348e+04	1.102344e-01	
1796	6.251727e+04	1.106345e-01	
1797	6.266139e+04	1.110362e-01	
1798	6.280584e+04	1.114393e-01	
1799	6.295062e+04	1.118438e-01	
1800	6.309573e+04	1.122498e-01	
1801	6.324119e+04	1.126573e-01	
1802	6.338697e+04	1.130662e-01	
1803	6.353309e+04	1.134766e-01	
1804	6.367955e+04	1.138885e-01	
1805	6.382635e+04	1.143018e-01	
1806	6.397348e+04	1.147166e-01	
1807	6.412096e+04	1.151330e-01	
1808	6.426877e+04	1.155508e-01	
1809	6.441693e+04	1.159700e-01	
1810	6.456542e+04	1.163908e-01	
1811	6.471426e+04	1.168131e-01	
1812	6.486344e+04	1.172369e-01	
1813	6.501297e+04	1.176623e-01	
1814	6.516284e+04	1.180891e-01	
1815	6.531306e+04	1.185174e-01	
1816	6.546362e+04	1.189473e-01	
1817	6.561453e+04	1.193787e-01	
1818	6.576578e+04	1.198116e-01	
1819	6.591739e+04	1.202461e-01	
1820	6.606934e+04	1.206821e-01	
1821	6.622165e+04	1.211197e-01	
1822	6.637431e+04	1.215588e-01	
1823	6.652732e+04	1.219994e-01	
1824	6.668068e+04	1.224416e-01	
1825	6.683439e+04	1.228854e-01	
1826	6.698846e+04	1.233307e-01	
1827	6.714289e+04	1.237776e-01	
1828	6.729767e+04	1.242261e-01	
1829	6.745280e+04	1.246762e-01	
1830	6.760830e+04	1.251278e-01	
1831	6.776415e+04	1.255810e-01	
1832	6.792036e+04	1.260358e-01	
1833	6.807694e+04	1.264922e-01	
1834	6.823387e+04	1.269503e-01	
1835	6.839116e+04	1.274099e-01	
1836	6.854882e+04	1.278711e-01	
1837	6.870684e+04	1.283339e-01	
1838	6.886523e+04	1.287984e-01	
1839	6.902398e+04	1.292644e-01	
1840	6.918310e+04	1.297321e-01	
1841	6.934258e+04	1.302015e-01	
1842	6.950243e+04	1.306724e-01	
1843	6.966265e+04	1.311450e-01	
1844	6.982324e+04	1.316192e-01	
1845	6.998420e+04	1.320951e-01	
1846	7.014553e+04	1.325727e-01	
1847	7.030723e+04	1.330518e-01	
1848	7.046931e+04	1.335327e-01	
1849	7.063176e+04	1.340152e-01	
1850	7.079458e+04	1.344994e-01	
1851	7.095778e+04	1.349852e-01	
1852	7.112135e+04	1.354727e-01	

Index   frequency       vm(6)           
--------------------------------------------------------------------------------
1853	7.128530e+04	1.359619e-01	
1854	7.144963e+04	1.364528e-01	
1855	7.161434e+04	1.369454e-01	
1856	7.177943e+04	1.374397e-01	
1857	7.194490e+04	1.379356e-01	
1858	7.211075e+04	1.384333e-01	
1859	7.227698e+04	1.389327e-01	
1860	7.244360e+04	1.394338e-01	
1861	7.261060e+04	1.399365e-01	
1862	7.277798e+04	1.404411e-01	
1863	7.294575e+04	1.409473e-01	
1864	7.311391e+04	1.414553e-01	
1865	7.328245e+04	1.419650e-01	
1866	7.345139e+04	1.424764e-01	
1867	7.362071e+04	1.429896e-01	
1868	7.379042e+04	1.435045e-01	
1869	7.396053e+04	1.440211e-01	
1870	7.413102e+04	1.445395e-01	
1871	7.430191e+04	1.450597e-01	
1872	7.447320e+04	1.455816e-01	
1873	7.464488e+04	1.461053e-01	
1874	7.481695e+04	1.466308e-01	
1875	7.498942e+04	1.471580e-01	
1876	7.516229e+04	1.476871e-01	
1877	7.533556e+04	1.482179e-01	
1878	7.550922e+04	1.487505e-01	
1879	7.568329e+04	1.492848e-01	
1880	7.585776e+04	1.498210e-01	
1881	7.603263e+04	1.503590e-01	
1882	7.620790e+04	1.508988e-01	
1883	7.638358e+04	1.514403e-01	
1884	7.655966e+04	1.519837e-01	
1885	7.673615e+04	1.525290e-01	
1886	7.691304e+04	1.530760e-01	
1887	7.709035e+04	1.536248e-01	
1888	7.726806e+04	1.541755e-01	
1889	7.744618e+04	1.547281e-01	
1890	7.762471e+04	1.552824e-01	
1891	7.780366e+04	1.558386e-01	
1892	7.798301e+04	1.563967e-01	
1893	7.816278e+04	1.569566e-01	
1894	7.834296e+04	1.575183e-01	
1895	7.852356e+04	1.580819e-01	
1896	7.870458e+04	1.586474e-01	
1897	7.888601e+04	1.592148e-01	
1898	7.906786e+04	1.597840e-01	
1899	7.925013e+04	1.603551e-01	
1900	7.943282e+04	1.609281e-01	
1901	7.961594e+04	1.615029e-01	
1902	7.979947e+04	1.620797e-01	
1903	7.998343e+04	1.626583e-01	
1904	8.016781e+04	1.632389e-01	
1905	8.035261e+04	1.638213e-01	
1906	8.053784e+04	1.644056e-01	
1907	8.072350e+04	1.649919e-01	
1908	8.090959e+04	1.655801e-01	
1909	8.109611e+04	1.661702e-01	
1910	8.128305e+04	1.667622e-01	

Index   frequency       vm(6)           
--------------------------------------------------------------------------------
1911	8.147043e+04	1.673561e-01	
1912	8.165824e+04	1.679520e-01	
1913	8.184648e+04	1.685498e-01	
1914	8.203515e+04	1.691496e-01	
1915	8.222426e+04	1.697513e-01	
1916	8.241381e+04	1.703549e-01	
1917	8.260379e+04	1.709605e-01	
1918	8.279422e+04	1.715681e-01	
1919	8.298508e+04	1.721776e-01	
1920	8.317638e+04	1.727891e-01	
1921	8.336812e+04	1.734025e-01	
1922	8.356030e+04	1.740179e-01	
1923	8.375293e+04	1.746353e-01	
1924	8.394600e+04	1.752547e-01	
1925	8.413951e+04	1.758761e-01	
1926	8.433348e+04	1.764995e-01	
1927	8.452788e+04	1.771248e-01	
1928	8.472274e+04	1.777522e-01	
1929	8.491805e+04	1.783816e-01	
1930	8.511380e+04	1.790129e-01	
1931	8.531001e+04	1.796463e-01	
1932	8.550667e+04	1.802817e-01	
1933	8.570378e+04	1.809191e-01	
1934	8.590135e+04	1.815586e-01	
1935	8.609938e+04	1.822000e-01	
1936	8.629785e+04	1.828436e-01	
1937	8.649679e+04	1.834891e-01	
1938	8.669619e+04	1.841367e-01	
1939	8.689604e+04	1.847863e-01	
1940	8.709636e+04	1.854380e-01	
1941	8.729714e+04	1.860917e-01	
1942	8.749838e+04	1.867475e-01	
1943	8.770008e+04	1.874054e-01	
1944	8.790225e+04	1.880653e-01	
1945	8.810489e+04	1.887273e-01	
1946	8.830799e+04	1.893914e-01	
1947	8.851156e+04	1.900575e-01	
1948	8.871560e+04	1.907258e-01	
1949	8.892011e+04	1.913961e-01	
1950	8.912509e+04	1.920685e-01	
1951	8.933055e+04	1.927430e-01	
1952	8.953648e+04	1.934196e-01	
1953	8.974288e+04	1.940983e-01	
1954	8.994976e+04	1.947791e-01	
1955	9.015711e+04	1.954621e-01	
1956	9.036495e+04	1.961471e-01	
1957	9.057326e+04	1.968343e-01	
1958	9.078205e+04	1.975236e-01	
1959	9.099133e+04	1.982150e-01	
1960	9.120108e+04	1.989086e-01	
1961	9.141132e+04	1.996043e-01	
1962	9.162205e+04	2.003021e-01	
1963	9.183326e+04	2.010021e-01	
1964	9.204496e+04	2.017043e-01	
1965	9.225714e+04	2.024085e-01	
1966	9.246982e+04	2.031150e-01	
1967	9.268298e+04	2.038236e-01	
1968	9.289664e+04	2.045344e-01	

Index   frequency       vm(6)           
--------------------------------------------------------------------------------
1969	9.311079e+04	2.052473e-01	
1970	9.332543e+04	2.059625e-01	
1971	9.354057e+04	2.066798e-01	
1972	9.375620e+04	2.073993e-01	
1973	9.397233e+04	2.081209e-01	
1974	9.418896e+04	2.088448e-01	
1975	9.440609e+04	2.095709e-01	
1976	9.462372e+04	2.102991e-01	
1977	9.484185e+04	2.110296e-01	
1978	9.506048e+04	2.117623e-01	
1979	9.527962e+04	2.124972e-01	
1980	9.549926e+04	2.132343e-01	
1981	9.571941e+04	2.139736e-01	
1982	9.594006e+04	2.147151e-01	
1983	9.616123e+04	2.154589e-01	
1984	9.638290e+04	2.162049e-01	
1985	9.660509e+04	2.169532e-01	
1986	9.682779e+04	2.177037e-01	
1987	9.705100e+04	2.184564e-01	
1988	9.727472e+04	2.192114e-01	
1989	9.749896e+04	2.199686e-01	
1990	9.772372e+04	2.207281e-01	
1991	9.794900e+04	2.214899e-01	
1992	9.817479e+04	2.222539e-01	
1993	9.840111e+04	2.230202e-01	
1994	9.862795e+04	2.237887e-01	
1995	9.885531e+04	2.245596e-01	
1996	9.908319e+04	2.253327e-01	
1997	9.931160e+04	2.261081e-01	
1998	9.954054e+04	2.268858e-01	
1999	9.977001e+04	2.276658e-01	
2000	1.000000e+05	2.284481e-01	
2001	1.002305e+05	2.292327e-01	
2002	1.004616e+05	2.300196e-01	
2003	1.006932e+05	2.308088e-01	
2004	1.009253e+05	2.316003e-01	
2005	1.011579e+05	2.323942e-01	
2006	1.013911e+05	2.331903e-01	
2007	1.016249e+05	2.339888e-01	
2008	1.018591e+05	2.347896e-01	
2009	1.020939e+05	2.355928e-01	
2010	1.023293e+05	2.363983e-01	
2011	1.025652e+05	2.372061e-01	
2012	1.028016e+05	2.380163e-01	
2013	1.030386e+05	2.388288e-01	
2014	1.032761e+05	2.396437e-01	
2015	1.035142e+05	2.404610e-01	
2016	1.037528e+05	2.412806e-01	
2017	1.039920e+05	2.421026e-01	
2018	1.042317e+05	2.429269e-01	
2019	1.044720e+05	2.437536e-01	
2020	1.047129e+05	2.445827e-01	
2021	1.049542e+05	2.454142e-01	
2022	1.051962e+05	2.462481e-01	
2023	1.054387e+05	2.470844e-01	
2024	1.056818e+05	2.479230e-01	
2025	1.059254e+05	2.487641e-01	
2026	1.061696e+05	2.496076e-01	

Index   frequency       vm(6)           
--------------------------------------------------------------------------------
2027	1.064143e+05	2.504534e-01	
2028	1.066596e+05	2.513017e-01	
2029	1.069055e+05	2.521524e-01	
2030	1.071519e+05	2.530055e-01	
2031	1.073989e+05	2.538611e-01	
2032	1.076465e+05	2.547190e-01	
2033	1.078947e+05	2.555794e-01	
2034	1.081434e+05	2.564423e-01	
2035	1.083927e+05	2.573075e-01	
2036	1.086426e+05	2.581753e-01	
2037	1.088930e+05	2.590454e-01	
2038	1.091440e+05	2.599180e-01	
2039	1.093956e+05	2.607931e-01	
2040	1.096478e+05	2.616706e-01	
2041	1.099006e+05	2.625506e-01	
2042	1.101539e+05	2.634331e-01	
2043	1.104079e+05	2.643180e-01	
2044	1.106624e+05	2.652054e-01	
2045	1.109175e+05	2.660953e-01	
2046	1.111732e+05	2.669877e-01	
2047	1.114295e+05	2.678826e-01	
2048	1.116863e+05	2.687799e-01	
2049	1.119438e+05	2.696798e-01	
2050	1.122018e+05	2.705821e-01	
2051	1.124605e+05	2.714870e-01	
2052	1.127197e+05	2.723943e-01	
2053	1.129796e+05	2.733042e-01	
2054	1.132400e+05	2.742166e-01	
2055	1.135011e+05	2.751315e-01	
2056	1.137627e+05	2.760489e-01	
2057	1.140250e+05	2.769689e-01	
2058	1.142878e+05	2.778913e-01	
2059	1.145513e+05	2.788164e-01	
2060	1.148154e+05	2.797439e-01	
2061	1.150800e+05	2.806740e-01	
2062	1.153453e+05	2.816067e-01	
2063	1.156112e+05	2.825419e-01	
2064	1.158777e+05	2.834797e-01	
2065	1.161449e+05	2.844200e-01	
2066	1.164126e+05	2.853629e-01	
2067	1.166810e+05	2.863083e-01	
2068	1.169499e+05	2.872564e-01	
2069	1.172195e+05	2.882070e-01	
2070	1.174898e+05	2.891601e-01	
2071	1.177606e+05	2.901159e-01	
2072	1.180321e+05	2.910743e-01	
2073	1.183042e+05	2.920352e-01	
2074	1.185769e+05	2.929987e-01	
2075	1.188502e+05	2.939649e-01	
2076	1.191242e+05	2.949336e-01	
2077	1.193988e+05	2.959050e-01	
2078	1.196741e+05	2.968790e-01	
2079	1.199499e+05	2.978555e-01	
2080	1.202264e+05	2.988347e-01	
2081	1.205036e+05	2.998166e-01	
2082	1.207814e+05	3.008010e-01	
2083	1.210598e+05	3.017881e-01	
2084	1.213389e+05	3.027778e-01	

Index   frequency       vm(6)           
--------------------------------------------------------------------------------
2085	1.216186e+05	3.037702e-01	
2086	1.218990e+05	3.047652e-01	
2087	1.221800e+05	3.057629e-01	
2088	1.224616e+05	3.067632e-01	
2089	1.227439e+05	3.077661e-01	
2090	1.230269e+05	3.087718e-01	
2091	1.233105e+05	3.097800e-01	
2092	1.235947e+05	3.107910e-01	
2093	1.238797e+05	3.118046e-01	
2094	1.241652e+05	3.128209e-01	
2095	1.244515e+05	3.138399e-01	
2096	1.247384e+05	3.148616e-01	
2097	1.250259e+05	3.158860e-01	
2098	1.253141e+05	3.169130e-01	
2099	1.256030e+05	3.179428e-01	
2100	1.258925e+05	3.189752e-01	
2101	1.261828e+05	3.200104e-01	
2102	1.264736e+05	3.210483e-01	
2103	1.267652e+05	3.220888e-01	
2104	1.270574e+05	3.231321e-01	
2105	1.273503e+05	3.241782e-01	
2106	1.276439e+05	3.252269e-01	
2107	1.279381e+05	3.262784e-01	
2108	1.282331e+05	3.273326e-01	
2109	1.285287e+05	3.283896e-01	
2110	1.288250e+05	3.294493e-01	
2111	1.291219e+05	3.305117e-01	
2112	1.294196e+05	3.315769e-01	
2113	1.297179e+05	3.326448e-01	
2114	1.300170e+05	3.337155e-01	
2115	1.303167e+05	3.347890e-01	
2116	1.306171e+05	3.358652e-01	
2117	1.309182e+05	3.369442e-01	
2118	1.312200e+05	3.380260e-01	
2119	1.315225e+05	3.391106e-01	
2120	1.318257e+05	3.401979e-01	
2121	1.321296e+05	3.412881e-01	
2122	1.324342e+05	3.423810e-01	
2123	1.327394e+05	3.434767e-01	
2124	1.330454e+05	3.445752e-01	
2125	1.333521e+05	3.456766e-01	
2126	1.336596e+05	3.467807e-01	
2127	1.339677e+05	3.478877e-01	
2128	1.342765e+05	3.489974e-01	
2129	1.345860e+05	3.501100e-01	
2130	1.348963e+05	3.512254e-01	
2131	1.352073e+05	3.523437e-01	
2132	1.355189e+05	3.534648e-01	
2133	1.358313e+05	3.545887e-01	
2134	1.361445e+05	3.557154e-01	
2135	1.364583e+05	3.568450e-01	
2136	1.367729e+05	3.579775e-01	
2137	1.370882e+05	3.591128e-01	
2138	1.374042e+05	3.602510e-01	
2139	1.377209e+05	3.613920e-01	
2140	1.380384e+05	3.625359e-01	
2141	1.383566e+05	3.636827e-01	
2142	1.386756e+05	3.648324e-01	

Index   frequency       vm(6)           
--------------------------------------------------------------------------------
2143	1.389953e+05	3.659849e-01	
2144	1.393157e+05	3.671404e-01	
2145	1.396368e+05	3.682987e-01	
2146	1.399587e+05	3.694599e-01	
2147	1.402814e+05	3.706240e-01	
2148	1.406048e+05	3.717910e-01	
2149	1.409289e+05	3.729609e-01	
2150	1.412538e+05	3.741338e-01	
2151	1.415794e+05	3.753095e-01	
2152	1.419058e+05	3.764882e-01	
2153	1.422329e+05	3.776698e-01	
2154	1.425608e+05	3.788543e-01	
2155	1.428894e+05	3.800418e-01	
2156	1.432188e+05	3.812322e-01	
2157	1.435489e+05	3.824255e-01	
2158	1.438799e+05	3.836218e-01	
2159	1.442115e+05	3.848211e-01	
2160	1.445440e+05	3.860233e-01	
2161	1.448772e+05	3.872284e-01	
2162	1.452112e+05	3.884366e-01	
2163	1.455459e+05	3.896476e-01	
2164	1.458814e+05	3.908617e-01	
2165	1.462177e+05	3.920788e-01	
2166	1.465548e+05	3.932988e-01	
2167	1.468926e+05	3.945218e-01	
2168	1.472313e+05	3.957478e-01	
2169	1.475707e+05	3.969768e-01	
2170	1.479108e+05	3.982089e-01	
2171	1.482518e+05	3.994439e-01	
2172	1.485936e+05	4.006819e-01	
2173	1.489361e+05	4.019229e-01	
2174	1.492794e+05	4.031670e-01	
2175	1.496236e+05	4.044141e-01	
2176	1.499685e+05	4.056642e-01	
2177	1.503142e+05	4.069174e-01	
2178	1.506607e+05	4.081736e-01	
2179	1.510080e+05	4.094328e-01	
2180	1.513561e+05	4.106951e-01	
2181	1.517050e+05	4.119604e-01	
2182	1.520548e+05	4.132288e-01	
2183	1.524053e+05	4.145003e-01	
2184	1.527566e+05	4.157748e-01	
2185	1.531087e+05	4.170524e-01	
2186	1.534617e+05	4.183330e-01	
2187	1.538155e+05	4.196168e-01	
2188	1.541700e+05	4.209036e-01	
2189	1.545254e+05	4.221936e-01	
2190	1.548817e+05	4.234866e-01	
2191	1.552387e+05	4.247827e-01	
2192	1.555966e+05	4.260819e-01	
2193	1.559553e+05	4.273843e-01	
2194	1.563148e+05	4.286897e-01	
2195	1.566751e+05	4.299983e-01	
2196	1.570363e+05	4.313100e-01	
2197	1.573983e+05	4.326248e-01	
2198	1.577611e+05	4.339428e-01	
2199	1.581248e+05	4.352639e-01	
2200	1.584893e+05	4.365881e-01	

Index   frequency       vm(6)           
--------------------------------------------------------------------------------
2201	1.588547e+05	4.379155e-01	
2202	1.592209e+05	4.392461e-01	
2203	1.595879e+05	4.405798e-01	
2204	1.599558e+05	4.419167e-01	
2205	1.603245e+05	4.432567e-01	
2206	1.606941e+05	4.445999e-01	
2207	1.610646e+05	4.459463e-01	
2208	1.614359e+05	4.472959e-01	
2209	1.618080e+05	4.486487e-01	
2210	1.621810e+05	4.500046e-01	
2211	1.625549e+05	4.513638e-01	
2212	1.629296e+05	4.527262e-01	
2213	1.633052e+05	4.540917e-01	
2214	1.636817e+05	4.554605e-01	
2215	1.640590e+05	4.568326e-01	
2216	1.644372e+05	4.582078e-01	
2217	1.648162e+05	4.595863e-01	
2218	1.651962e+05	4.609680e-01	
2219	1.655770e+05	4.623529e-01	
2220	1.659587e+05	4.637411e-01	
2221	1.663413e+05	4.651326e-01	
2222	1.667247e+05	4.665273e-01	
2223	1.671091e+05	4.679252e-01	
2224	1.674943e+05	4.693264e-01	
2225	1.678804e+05	4.707310e-01	
2226	1.682674e+05	4.721387e-01	
2227	1.686553e+05	4.735498e-01	
2228	1.690441e+05	4.749642e-01	
2229	1.694338e+05	4.763818e-01	
2230	1.698244e+05	4.778027e-01	
2231	1.702159e+05	4.792270e-01	
2232	1.706082e+05	4.806546e-01	
2233	1.710015e+05	4.820854e-01	
2234	1.713957e+05	4.835196e-01	
2235	1.717908e+05	4.849572e-01	
2236	1.721869e+05	4.863980e-01	
2237	1.725838e+05	4.878422e-01	
2238	1.729816e+05	4.892898e-01	
2239	1.733804e+05	4.907407e-01	
2240	1.737801e+05	4.921949e-01	
2241	1.741807e+05	4.936525e-01	
2242	1.745822e+05	4.951135e-01	
2243	1.749847e+05	4.965778e-01	
2244	1.753881e+05	4.980456e-01	
2245	1.757924e+05	4.995167e-01	
2246	1.761976e+05	5.009911e-01	
2247	1.766038e+05	5.024690e-01	
2248	1.770109e+05	5.039503e-01	
2249	1.774189e+05	5.054350e-01	
2250	1.778279e+05	5.069231e-01	
2251	1.782379e+05	5.084146e-01	
2252	1.786488e+05	5.099096e-01	
2253	1.790606e+05	5.114080e-01	
2254	1.794734e+05	5.129098e-01	
2255	1.798871e+05	5.144150e-01	
2256	1.803018e+05	5.159237e-01	
2257	1.807174e+05	5.174359e-01	
2258	1.811340e+05	5.189515e-01	

Index   frequency       vm(6)           
--------------------------------------------------------------------------------
2259	1.815516e+05	5.204706e-01	
2260	1.819701e+05	5.219931e-01	
2261	1.823896e+05	5.235191e-01	
2262	1.828100e+05	5.250486e-01	
2263	1.832314e+05	5.265816e-01	
2264	1.836538e+05	5.281181e-01	
2265	1.840772e+05	5.296581e-01	
2266	1.845015e+05	5.312016e-01	
2267	1.849269e+05	5.327486e-01	
2268	1.853532e+05	5.342991e-01	
2269	1.857804e+05	5.358532e-01	
2270	1.862087e+05	5.374108e-01	
2271	1.866380e+05	5.389719e-01	
2272	1.870682e+05	5.405366e-01	
2273	1.874995e+05	5.421048e-01	
2274	1.879317e+05	5.436766e-01	
2275	1.883649e+05	5.452519e-01	
2276	1.887991e+05	5.468308e-01	
2277	1.892344e+05	5.484133e-01	
2278	1.896706e+05	5.499994e-01	
2279	1.901078e+05	5.515890e-01	
2280	1.905461e+05	5.531823e-01	
2281	1.909853e+05	5.547791e-01	
2282	1.914256e+05	5.563796e-01	
2283	1.918669e+05	5.579837e-01	
2284	1.923092e+05	5.595914e-01	
2285	1.927525e+05	5.612027e-01	
2286	1.931968e+05	5.628176e-01	
2287	1.936422e+05	5.644362e-01	
2288	1.940886e+05	5.660585e-01	
2289	1.945360e+05	5.676844e-01	
2290	1.949845e+05	5.693139e-01	
2291	1.954339e+05	5.709472e-01	
2292	1.958845e+05	5.725841e-01	
2293	1.963360e+05	5.742246e-01	
2294	1.967886e+05	5.758689e-01	
2295	1.972423e+05	5.775169e-01	
2296	1.976970e+05	5.791685e-01	
2297	1.981527e+05	5.808239e-01	
2298	1.986095e+05	5.824830e-01	
2299	1.990673e+05	5.841458e-01	
2300	1.995262e+05	5.858123e-01	
2301	1.999862e+05	5.874826e-01	
2302	2.004472e+05	5.891566e-01	
2303	2.009093e+05	5.908344e-01	
2304	2.013724e+05	5.925159e-01	
2305	2.018366e+05	5.942012e-01	
2306	2.023019e+05	5.958902e-01	
2307	2.027683e+05	5.975831e-01	
2308	2.032357e+05	5.992797e-01	
2309	2.037042e+05	6.009801e-01	
2310	2.041738e+05	6.026843e-01	
2311	2.046445e+05	6.043923e-01	
2312	2.051162e+05	6.061041e-01	
2313	2.055891e+05	6.078198e-01	
2314	2.060630e+05	6.095393e-01	
2315	2.065380e+05	6.112626e-01	
2316	2.070141e+05	6.129897e-01	

Index   frequency       vm(6)           
--------------------------------------------------------------------------------
2317	2.074914e+05	6.147207e-01	
2318	2.079697e+05	6.164556e-01	
2319	2.084491e+05	6.181943e-01	
2320	2.089296e+05	6.199369e-01	
2321	2.094112e+05	6.216834e-01	
2322	2.098940e+05	6.234337e-01	
2323	2.103778e+05	6.251880e-01	
2324	2.108628e+05	6.269462e-01	
2325	2.113489e+05	6.287082e-01	
2326	2.118361e+05	6.304742e-01	
2327	2.123244e+05	6.322441e-01	
2328	2.128139e+05	6.340180e-01	
2329	2.133045e+05	6.357957e-01	
2330	2.137962e+05	6.375775e-01	
2331	2.142891e+05	6.393632e-01	
2332	2.147830e+05	6.411528e-01	
2333	2.152782e+05	6.429464e-01	
2334	2.157744e+05	6.447440e-01	
2335	2.162719e+05	6.465456e-01	
2336	2.167704e+05	6.483512e-01	
2337	2.172701e+05	6.501608e-01	
2338	2.177710e+05	6.519744e-01	
2339	2.182730e+05	6.537920e-01	
2340	2.187762e+05	6.556136e-01	
2341	2.192805e+05	6.574393e-01	
2342	2.197860e+05	6.592690e-01	
2343	2.202926e+05	6.611028e-01	
2344	2.208005e+05	6.629406e-01	
2345	2.213095e+05	6.647825e-01	
2346	2.218196e+05	6.666285e-01	
2347	2.223310e+05	6.684785e-01	
2348	2.228435e+05	6.703326e-01	
2349	2.233572e+05	6.721909e-01	
2350	2.238721e+05	6.740532e-01	
2351	2.243882e+05	6.759197e-01	
2352	2.249055e+05	6.777903e-01	
2353	2.254239e+05	6.796650e-01	
2354	2.259436e+05	6.815439e-01	
2355	2.264644e+05	6.834269e-01	
2356	2.269865e+05	6.853141e-01	
2357	2.275097e+05	6.872054e-01	
2358	2.280342e+05	6.891009e-01	
2359	2.285599e+05	6.910006e-01	
2360	2.290868e+05	6.929045e-01	
2361	2.296149e+05	6.948126e-01	
2362	2.301442e+05	6.967249e-01	
2363	2.306747e+05	6.986414e-01	
[...]
5426	2.666859e+08	1.677372e+00	
5427	2.673006e+08	1.677272e+00	
5428	2.679168e+08	1.677174e+00	
5429	2.685344e+08	1.677076e+00	
5430	2.691535e+08	1.676978e+00	
5431	2.697739e+08	1.676880e+00	
5432	2.703958e+08	1.676784e+00	
5433	2.710192e+08	1.676687e+00	
5434	2.716439e+08	1.676591e+00	
5435	2.722701e+08	1.676495e+00	
5436	2.728978e+08	1.676400e+00	
5437	2.735269e+08	1.676306e+00	
5438	2.741574e+08	1.676211e+00	
5439	2.747894e+08	1.676117e+00	
5440	2.754229e+08	1.676024e+00	
5441	2.760578e+08	1.675931e+00	
5442	2.766942e+08	1.675838e+00	
5443	2.773320e+08	1.675746e+00	
5444	2.779713e+08	1.675655e+00	
5445	2.786121e+08	1.675563e+00	
5446	2.792544e+08	1.675472e+00	
5447	2.798981e+08	1.675382e+00	
5448	2.805434e+08	1.675292e+00	

Index   frequency       vm(6)           
--------------------------------------------------------------------------------
5449	2.811901e+08	1.675202e+00	
5450	2.818383e+08	1.675113e+00	
5451	2.824880e+08	1.675024e+00	
5452	2.831392e+08	1.674936e+00	
5453	2.837919e+08	1.674847e+00	
5454	2.844461e+08	1.674760e+00	
5455	2.851018e+08	1.674673e+00	
5456	2.857591e+08	1.674586e+00	
5457	2.864178e+08	1.674499e+00	
5458	2.870781e+08	1.674413e+00	
5459	2.877398e+08	1.674327e+00	
5460	2.884032e+08	1.674242e+00	
5461	2.890680e+08	1.674157e+00	
5462	2.897344e+08	1.674073e+00	
5463	2.904023e+08	1.673989e+00	
5464	2.910717e+08	1.673905e+00	
5465	2.917427e+08	1.673822e+00	
5466	2.924152e+08	1.673739e+00	
5467	2.930893e+08	1.673656e+00	
5468	2.937650e+08	1.673574e+00	
5469	2.944422e+08	1.673492e+00	
5470	2.951209e+08	1.673410e+00	
5471	2.958012e+08	1.673329e+00	
5472	2.964831e+08	1.673249e+00	
5473	2.971666e+08	1.673168e+00	
5474	2.978516e+08	1.673088e+00	
5475	2.985383e+08	1.673008e+00	
5476	2.992265e+08	1.672929e+00	
5477	2.999163e+08	1.672850e+00	
5478	3.006076e+08	1.672772e+00	
5479	3.013006e+08	1.672693e+00	
5480	3.019952e+08	1.672616e+00	
5481	3.026913e+08	1.672538e+00	
5482	3.033891e+08	1.672461e+00	
5483	3.040885e+08	1.672384e+00	
5484	3.047895e+08	1.672308e+00	
5485	3.054921e+08	1.672232e+00	
5486	3.061963e+08	1.672156e+00	
5487	3.069022e+08	1.672080e+00	
5488	3.076097e+08	1.672005e+00	
5489	3.083188e+08	1.671931e+00	
5490	3.090295e+08	1.671856e+00	
5491	3.097419e+08	1.671782e+00	
5492	3.104560e+08	1.671709e+00	
5493	3.111716e+08	1.671635e+00	
5494	3.118890e+08	1.671562e+00	
5495	3.126079e+08	1.671489e+00	
5496	3.133286e+08	1.671417e+00	
5497	3.140509e+08	1.671345e+00	
5498	3.147748e+08	1.671273e+00	
5499	3.155005e+08	1.671202e+00	
5500	3.162278e+08	1.671131e+00	
5501	3.169567e+08	1.671060e+00	
5502	3.176874e+08	1.670990e+00	
5503	3.184198e+08	1.670920e+00	
5504	3.191538e+08	1.670850e+00	
5505	3.198895e+08	1.670780e+00	
5506	3.206269e+08	1.670711e+00	

Index   frequency       vm(6)           
--------------------------------------------------------------------------------
5507	3.213661e+08	1.670642e+00	
5508	3.221069e+08	1.670574e+00	
5509	3.228494e+08	1.670506e+00	
5510	3.235937e+08	1.670438e+00	
5511	3.243396e+08	1.670370e+00	
5512	3.250873e+08	1.670303e+00	
5513	3.258367e+08	1.670236e+00	
5514	3.265878e+08	1.670169e+00	
5515	3.273407e+08	1.670103e+00	
5516	3.280953e+08	1.670037e+00	
5517	3.288516e+08	1.669971e+00	
5518	3.296097e+08	1.669906e+00	
5519	3.303695e+08	1.669841e+00	
5520	3.311311e+08	1.669776e+00	
5521	3.318945e+08	1.669711e+00	
5522	3.326596e+08	1.669647e+00	
5523	3.334264e+08	1.669583e+00	
5524	3.341950e+08	1.669519e+00	
5525	3.349654e+08	1.669456e+00	
5526	3.357376e+08	1.669393e+00	
5527	3.365116e+08	1.669330e+00	
5528	3.372873e+08	1.669267e+00	
5529	3.380648e+08	1.669205e+00	
5530	3.388442e+08	1.669143e+00	
5531	3.396253e+08	1.669082e+00	
5532	3.404082e+08	1.669020e+00	
5533	3.411929e+08	1.668959e+00	
5534	3.419794e+08	1.668898e+00	
5535	3.427678e+08	1.668838e+00	
5536	3.435579e+08	1.668777e+00	
5537	3.443499e+08	1.668717e+00	
5538	3.451437e+08	1.668658e+00	
5539	3.459394e+08	1.668598e+00	
5540	3.467369e+08	1.668539e+00	
5541	3.475362e+08	1.668480e+00	
5542	3.483373e+08	1.668421e+00	
5543	3.491403e+08	1.668363e+00	
5544	3.499452e+08	1.668305e+00	
5545	3.507519e+08	1.668247e+00	
5546	3.515604e+08	1.668189e+00	
5547	3.523709e+08	1.668132e+00	
5548	3.531832e+08	1.668075e+00	
5549	3.539973e+08	1.668018e+00	
5550	3.548134e+08	1.667962e+00	
5551	3.556313e+08	1.667905e+00	
5552	3.564511e+08	1.667849e+00	
5553	3.572728e+08	1.667794e+00	
5554	3.580964e+08	1.667738e+00	
5555	3.589219e+08	1.667683e+00	
5556	3.597493e+08	1.667628e+00	
5557	3.605786e+08	1.667573e+00	
5558	3.614099e+08	1.667519e+00	
5559	3.622430e+08	1.667464e+00	
5560	3.630781e+08	1.667410e+00	
5561	3.639150e+08	1.667357e+00	
5562	3.647539e+08	1.667303e+00	
5563	3.655948e+08	1.667250e+00	
5564	3.664376e+08	1.667197e+00	

Index   frequency       vm(6)           
--------------------------------------------------------------------------------
5565	3.672823e+08	1.667144e+00	
5566	3.681290e+08	1.667091e+00	
5567	3.689776e+08	1.667039e+00	
5568	3.698282e+08	1.666987e+00	
5569	3.706807e+08	1.666935e+00	
5570	3.715352e+08	1.666884e+00	
5571	3.723917e+08	1.666832e+00	
5572	3.732502e+08	1.666781e+00	
5573	3.741106e+08	1.666730e+00	
5574	3.749730e+08	1.666679e+00	
5575	3.758374e+08	1.666629e+00	
5576	3.767038e+08	1.666579e+00	
5577	3.775722e+08	1.666529e+00	
5578	3.784426e+08	1.666479e+00	
5579	3.793150e+08	1.666430e+00	
5580	3.801894e+08	1.666380e+00	
5581	3.810658e+08	1.666331e+00	
5582	3.819443e+08	1.666282e+00	
5583	3.828247e+08	1.666234e+00	
5584	3.837072e+08	1.666185e+00	
5585	3.845918e+08	1.666137e+00	
5586	3.854784e+08	1.666089e+00	
5587	3.863670e+08	1.666042e+00	
5588	3.872576e+08	1.665994e+00	
5589	3.881504e+08	1.665947e+00	
5590	3.890451e+08	1.665900e+00	
5591	3.899420e+08	1.665853e+00	
5592	3.908409e+08	1.665806e+00	
5593	3.917419e+08	1.665760e+00	
5594	3.926449e+08	1.665713e+00	
5595	3.935501e+08	1.665667e+00	
5596	3.944573e+08	1.665622e+00	
5597	3.953666e+08	1.665576e+00	
5598	3.962780e+08	1.665531e+00	
5599	3.971915e+08	1.665485e+00	
5600	3.981072e+08	1.665440e+00	
5601	3.990249e+08	1.665396e+00	
5602	3.999447e+08	1.665351e+00	
5603	4.008667e+08	1.665307e+00	
5604	4.017908e+08	1.665263e+00	
5605	4.027170e+08	1.665219e+00	
5606	4.036454e+08	1.665175e+00	
5607	4.045759e+08	1.665131e+00	
5608	4.055085e+08	1.665088e+00	
5609	4.064433e+08	1.665045e+00	
5610	4.073803e+08	1.665002e+00	
5611	4.083194e+08	1.664959e+00	
5612	4.092607e+08	1.664917e+00	
5613	4.102041e+08	1.664874e+00	
5614	4.111497e+08	1.664832e+00	
5615	4.120975e+08	1.664790e+00	
5616	4.130475e+08	1.664748e+00	
5617	4.139997e+08	1.664707e+00	
5618	4.149540e+08	1.664665e+00	
5619	4.159106e+08	1.664624e+00	
5620	4.168694e+08	1.664583e+00	
5621	4.178304e+08	1.664542e+00	
5622	4.187936e+08	1.664501e+00	

Index   frequency       vm(6)           
--------------------------------------------------------------------------------
5623	4.197590e+08	1.664461e+00	
5624	4.207266e+08	1.664421e+00	
5625	4.216965e+08	1.664380e+00	
5626	4.226686e+08	1.664341e+00	
5627	4.236430e+08	1.664301e+00	
5628	4.246196e+08	1.664261e+00	
5629	4.255984e+08	1.664222e+00	
5630	4.265795e+08	1.664183e+00	
5631	4.275629e+08	1.664144e+00	
5632	4.285485e+08	1.664105e+00	
5633	4.295364e+08	1.664066e+00	
5634	4.305266e+08	1.664028e+00	
5635	4.315191e+08	1.663989e+00	
5636	4.325138e+08	1.663951e+00	
5637	4.335109e+08	1.663913e+00	
5638	4.345102e+08	1.663875e+00	
5639	4.355119e+08	1.663838e+00	
5640	4.365158e+08	1.663800e+00	
5641	4.375221e+08	1.663763e+00	
5642	4.385307e+08	1.663726e+00	
5643	4.395416e+08	1.663689e+00	
5644	4.405549e+08	1.663652e+00	
5645	4.415704e+08	1.663616e+00	
5646	4.425884e+08	1.663579e+00	
5647	4.436086e+08	1.663543e+00	
5648	4.446313e+08	1.663507e+00	
5649	4.456562e+08	1.663471e+00	
5650	4.466836e+08	1.663435e+00	
5651	4.477133e+08	1.663400e+00	
5652	4.487454e+08	1.663364e+00	
5653	4.497799e+08	1.663329e+00	
5654	4.508167e+08	1.663294e+00	
5655	4.518559e+08	1.663259e+00	
5656	4.528976e+08	1.663224e+00	
5657	4.539416e+08	1.663189e+00	
5658	4.549881e+08	1.663155e+00	
5659	4.560369e+08	1.663121e+00	
5660	4.570882e+08	1.663086e+00	
5661	4.581419e+08	1.663052e+00	
5662	4.591980e+08	1.663019e+00	
5663	4.602566e+08	1.662985e+00	
5664	4.613176e+08	1.662951e+00	
5665	4.623810e+08	1.662918e+00	
5666	4.634469e+08	1.662885e+00	
5667	4.645153e+08	1.662852e+00	
5668	4.655861e+08	1.662819e+00	
5669	4.666594e+08	1.662786e+00	
5670	4.677351e+08	1.662753e+00	
5671	4.688134e+08	1.662721e+00	
5672	4.698941e+08	1.662689e+00	
5673	4.709773e+08	1.662656e+00	
5674	4.720630e+08	1.662624e+00	
5675	4.731513e+08	1.662592e+00	
5676	4.742420e+08	1.662561e+00	
5677	4.753352e+08	1.662529e+00	
5678	4.764310e+08	1.662498e+00	
5679	4.775293e+08	1.662466e+00	
5680	4.786301e+08	1.662435e+00	

Index   frequency       vm(6)           
--------------------------------------------------------------------------------
5681	4.797334e+08	1.662404e+00	
5682	4.808393e+08	1.662373e+00	
5683	4.819478e+08	1.662342e+00	
5684	4.830588e+08	1.662312e+00	
5685	4.841724e+08	1.662281e+00	
5686	4.852885e+08	1.662251e+00	
5687	4.864072e+08	1.662221e+00	
5688	4.875285e+08	1.662191e+00	
5689	4.886524e+08	1.662161e+00	
5690	4.897788e+08	1.662131e+00	
5691	4.909079e+08	1.662102e+00	
5692	4.920395e+08	1.662072e+00	
5693	4.931738e+08	1.662043e+00	
5694	4.943107e+08	1.662013e+00	
5695	4.954502e+08	1.661984e+00	
5696	4.965923e+08	1.661955e+00	
5697	4.977371e+08	1.661927e+00	
5698	4.988845e+08	1.661898e+00	
5699	5.000345e+08	1.661869e+00	
5700	5.011872e+08	1.661841e+00	
5701	5.023426e+08	1.661813e+00	
5702	5.035006e+08	1.661784e+00	
5703	5.046613e+08	1.661756e+00	
5704	5.058247e+08	1.661728e+00	
5705	5.069907e+08	1.661701e+00	
5706	5.081594e+08	1.661673e+00	
5707	5.093309e+08	1.661645e+00	
5708	5.105050e+08	1.661618e+00	
5709	5.116818e+08	1.661591e+00	
5710	5.128614e+08	1.661564e+00	
5711	5.140437e+08	1.661537e+00	
5712	5.152286e+08	1.661510e+00	
5713	5.164164e+08	1.661483e+00	
5714	5.176068e+08	1.661456e+00	
5715	5.188000e+08	1.661430e+00	
5716	5.199960e+08	1.661403e+00	
5717	5.211947e+08	1.661377e+00	
5718	5.223962e+08	1.661351e+00	
5719	5.236004e+08	1.661325e+00	
5720	5.248075e+08	1.661299e+00	
5721	5.260173e+08	1.661273e+00	
5722	5.272299e+08	1.661247e+00	
5723	5.284453e+08	1.661222e+00	
5724	5.296634e+08	1.661196e+00	
5725	5.308844e+08	1.661171e+00	
5726	5.321083e+08	1.661146e+00	
5727	5.333349e+08	1.661120e+00	
5728	5.345644e+08	1.661095e+00	
5729	5.357967e+08	1.661071e+00	
5730	5.370318e+08	1.661046e+00	
5731	5.382698e+08	1.661021e+00	
5732	5.395106e+08	1.660997e+00	
5733	5.407543e+08	1.660972e+00	
5734	5.420009e+08	1.660948e+00	
5735	5.432503e+08	1.660924e+00	
5736	5.445027e+08	1.660899e+00	
5737	5.457579e+08	1.660876e+00	
5738	5.470160e+08	1.660852e+00	

Index   frequency       vm(6)           
--------------------------------------------------------------------------------
5739	5.482770e+08	1.660828e+00	
5740	5.495409e+08	1.660804e+00	
5741	5.508077e+08	1.660781e+00	
5742	5.520774e+08	1.660757e+00	
5743	5.533501e+08	1.660734e+00	
5744	5.546257e+08	1.660711e+00	
5745	5.559043e+08	1.660687e+00	
5746	5.571857e+08	1.660664e+00	
5747	5.584702e+08	1.660642e+00	
5748	5.597576e+08	1.660619e+00	
5749	5.610480e+08	1.660596e+00	
5750	5.623413e+08	1.660573e+00	
5751	5.636377e+08	1.660551e+00	
5752	5.649370e+08	1.660529e+00	
5753	5.662393e+08	1.660506e+00	
5754	5.675446e+08	1.660484e+00	
5755	5.688529e+08	1.660462e+00	
5756	5.701643e+08	1.660440e+00	
5757	5.714786e+08	1.660418e+00	
5758	5.727960e+08	1.660396e+00	
5759	5.741165e+08	1.660375e+00	
5760	5.754399e+08	1.660353e+00	
5761	5.767665e+08	1.660332e+00	
5762	5.780960e+08	1.660310e+00	
5763	5.794287e+08	1.660289e+00	
5764	5.807644e+08	1.660268e+00	
5765	5.821032e+08	1.660247e+00	
5766	5.834451e+08	1.660226e+00	
5767	5.847901e+08	1.660205e+00	
5768	5.861382e+08	1.660184e+00	
5769	5.874894e+08	1.660163e+00	
5770	5.888437e+08	1.660143e+00	
5771	5.902011e+08	1.660122e+00	
5772	5.915616e+08	1.660102e+00	
5773	5.929253e+08	1.660081e+00	
5774	5.942922e+08	1.660061e+00	
5775	5.956621e+08	1.660041e+00	
5776	5.970353e+08	1.660021e+00	
5777	5.984116e+08	1.660001e+00	
5778	5.997911e+08	1.659981e+00	
5779	6.011737e+08	1.659961e+00	
5780	6.025596e+08	1.659941e+00	
5781	6.039486e+08	1.659922e+00	
5782	6.053409e+08	1.659902e+00	
5783	6.067363e+08	1.659883e+00	
5784	6.081350e+08	1.659864e+00	
5785	6.095369e+08	1.659844e+00	
5786	6.109420e+08	1.659825e+00	
5787	6.123504e+08	1.659806e+00	
5788	6.137620e+08	1.659787e+00	
5789	6.151769e+08	1.659768e+00	
5790	6.165950e+08	1.659749e+00	
5791	6.180164e+08	1.659731e+00	
5792	6.194411e+08	1.659712e+00	
5793	6.208690e+08	1.659694e+00	
5794	6.223003e+08	1.659675e+00	
5795	6.237348e+08	1.659657e+00	
5796	6.251727e+08	1.659638e+00	

Index   frequency       vm(6)           
--------------------------------------------------------------------------------
5797	6.266139e+08	1.659620e+00	
5798	6.280584e+08	1.659602e+00	
5799	6.295062e+08	1.659584e+00	
5800	6.309573e+08	1.659566e+00	
5801	6.324119e+08	1.659548e+00	
5802	6.338697e+08	1.659530e+00	
5803	6.353309e+08	1.659513e+00	
5804	6.367955e+08	1.659495e+00	
5805	6.382635e+08	1.659477e+00	
5806	6.397348e+08	1.659460e+00	
5807	6.412096e+08	1.659443e+00	
5808	6.426877e+08	1.659425e+00	
5809	6.441693e+08	1.659408e+00	
5810	6.456542e+08	1.659391e+00	
5811	6.471426e+08	1.659374e+00	
5812	6.486344e+08	1.659357e+00	
5813	6.501297e+08	1.659340e+00	
5814	6.516284e+08	1.659323e+00	
5815	6.531306e+08	1.659306e+00	
5816	6.546362e+08	1.659290e+00	
5817	6.561453e+08	1.659273e+00	
5818	6.576578e+08	1.659256e+00	
5819	6.591739e+08	1.659240e+00	
5820	6.606934e+08	1.659224e+00	
5821	6.622165e+08	1.659207e+00	
5822	6.637431e+08	1.659191e+00	
5823	6.652732e+08	1.659175e+00	
5824	6.668068e+08	1.659159e+00	
5825	6.683439e+08	1.659143e+00	
5826	6.698846e+08	1.659127e+00	
5827	6.714289e+08	1.659111e+00	
5828	6.729767e+08	1.659095e+00	
5829	6.745280e+08	1.659079e+00	
5830	6.760830e+08	1.659064e+00	
5831	6.776415e+08	1.659048e+00	
5832	6.792036e+08	1.659033e+00	
5833	6.807694e+08	1.659017e+00	
5834	6.823387e+08	1.659002e+00	
5835	6.839116e+08	1.658987e+00	
5836	6.854882e+08	1.658971e+00	
5837	6.870684e+08	1.658956e+00	
5838	6.886523e+08	1.658941e+00	
5839	6.902398e+08	1.658926e+00	
5840	6.918310e+08	1.658911e+00	
5841	6.934258e+08	1.658896e+00	
5842	6.950243e+08	1.658881e+00	
5843	6.966265e+08	1.658867e+00	
5844	6.982324e+08	1.658852e+00	
5845	6.998420e+08	1.658837e+00	
5846	7.014553e+08	1.658823e+00	
5847	7.030723e+08	1.658808e+00	
5848	7.046931e+08	1.658794e+00	
5849	7.063176e+08	1.658780e+00	
5850	7.079458e+08	1.658765e+00	
5851	7.095778e+08	1.658751e+00	
5852	7.112135e+08	1.658737e+00	
5853	7.128530e+08	1.658723e+00	
5854	7.144963e+08	1.658709e+00	

Index   frequency       vm(6)           
--------------------------------------------------------------------------------
5855	7.161434e+08	1.658695e+00	
5856	7.177943e+08	1.658681e+00	
5857	7.194490e+08	1.658667e+00	
5858	7.211075e+08	1.658654e+00	
5859	7.227698e+08	1.658640e+00	
5860	7.244360e+08	1.658626e+00	
5861	7.261060e+08	1.658613e+00	
5862	7.277798e+08	1.658599e+00	
5863	7.294575e+08	1.658586e+00	
5864	7.311391e+08	1.658572e+00	
5865	7.328245e+08	1.658559e+00	
5866	7.345139e+08	1.658546e+00	
5867	7.362071e+08	1.658533e+00	
5868	7.379042e+08	1.658519e+00	
5869	7.396053e+08	1.658506e+00	
5870	7.413102e+08	1.658493e+00	
5871	7.430191e+08	1.658480e+00	
5872	7.447320e+08	1.658467e+00	
5873	7.464488e+08	1.658455e+00	
5874	7.481695e+08	1.658442e+00	
5875	7.498942e+08	1.658429e+00	
5876	7.516229e+08	1.658416e+00	
5877	7.533556e+08	1.658404e+00	
5878	7.550922e+08	1.658391e+00	
5879	7.568329e+08	1.658379e+00	
5880	7.585776e+08	1.658366e+00	
5881	7.603263e+08	1.658354e+00	
5882	7.620790e+08	1.658342e+00	
5883	7.638358e+08	1.658329e+00	
5884	7.655966e+08	1.658317e+00	
5885	7.673615e+08	1.658305e+00	
5886	7.691304e+08	1.658293e+00	
5887	7.709035e+08	1.658281e+00	
5888	7.726806e+08	1.658269e+00	
5889	7.744618e+08	1.658257e+00	
5890	7.762471e+08	1.658245e+00	
5891	7.780366e+08	1.658233e+00	
5892	7.798301e+08	1.658221e+00	
5893	7.816278e+08	1.658210e+00	
5894	7.834296e+08	1.658198e+00	
5895	7.852356e+08	1.658186e+00	
5896	7.870458e+08	1.658175e+00	
5897	7.888601e+08	1.658163e+00	
5898	7.906786e+08	1.658152e+00	
5899	7.925013e+08	1.658141e+00	
5900	7.943282e+08	1.658129e+00	
5901	7.961594e+08	1.658118e+00	
5902	7.979947e+08	1.658107e+00	
5903	7.998343e+08	1.658095e+00	
5904	8.016781e+08	1.658084e+00	
5905	8.035261e+08	1.658073e+00	
5906	8.053784e+08	1.658062e+00	
5907	8.072350e+08	1.658051e+00	
5908	8.090959e+08	1.658040e+00	
5909	8.109611e+08	1.658029e+00	
5910	8.128305e+08	1.658019e+00	
5911	8.147043e+08	1.658008e+00	
5912	8.165824e+08	1.657997e+00	

Index   frequency       vm(6)           
--------------------------------------------------------------------------------
5913	8.184648e+08	1.657986e+00	
5914	8.203515e+08	1.657976e+00	
5915	8.222426e+08	1.657965e+00	
5916	8.241381e+08	1.657955e+00	
5917	8.260379e+08	1.657944e+00	
5918	8.279422e+08	1.657934e+00	
5919	8.298508e+08	1.657923e+00	
5920	8.317638e+08	1.657913e+00	
5921	8.336812e+08	1.657903e+00	
5922	8.356030e+08	1.657892e+00	
5923	8.375293e+08	1.657882e+00	
5924	8.394600e+08	1.657872e+00	
5925	8.413951e+08	1.657862e+00	
5926	8.433348e+08	1.657852e+00	
5927	8.452788e+08	1.657842e+00	
5928	8.472274e+08	1.657832e+00	
5929	8.491805e+08	1.657822e+00	
5930	8.511380e+08	1.657812e+00	
5931	8.531001e+08	1.657802e+00	
5932	8.550667e+08	1.657792e+00	
5933	8.570378e+08	1.657783e+00	
5934	8.590135e+08	1.657773e+00	
5935	8.609938e+08	1.657763e+00	
5936	8.629785e+08	1.657754e+00	
5937	8.649679e+08	1.657744e+00	
5938	8.669619e+08	1.657735e+00	
5939	8.689604e+08	1.657725e+00	
5940	8.709636e+08	1.657716e+00	
5941	8.729714e+08	1.657706e+00	
5942	8.749838e+08	1.657697e+00	
5943	8.770008e+08	1.657688e+00	
5944	8.790225e+08	1.657678e+00	
5945	8.810489e+08	1.657669e+00	
5946	8.830799e+08	1.657660e+00	
5947	8.851156e+08	1.657651e+00	
5948	8.871560e+08	1.657642e+00	
5949	8.892011e+08	1.657633e+00	
5950	8.912509e+08	1.657624e+00	
5951	8.933055e+08	1.657615e+00	
5952	8.953648e+08	1.657606e+00	
5953	8.974288e+08	1.657597e+00	
5954	8.994976e+08	1.657588e+00	
5955	9.015711e+08	1.657579e+00	
5956	9.036495e+08	1.657570e+00	
5957	9.057326e+08	1.657562e+00	
5958	9.078205e+08	1.657553e+00	
5959	9.099133e+08	1.657544e+00	
5960	9.120108e+08	1.657536e+00	
5961	9.141132e+08	1.657527e+00	
5962	9.162205e+08	1.657519e+00	
5963	9.183326e+08	1.657510e+00	
5964	9.204496e+08	1.657502e+00	
5965	9.225714e+08	1.657493e+00	
5966	9.246982e+08	1.657485e+00	
5967	9.268298e+08	1.657477e+00	
5968	9.289664e+08	1.657468e+00	
5969	9.311079e+08	1.657460e+00	
5970	9.332543e+08	1.657452e+00	

Index   frequency       vm(6)           
--------------------------------------------------------------------------------
5971	9.354057e+08	1.657444e+00	
5972	9.375620e+08	1.657436e+00	
5973	9.397233e+08	1.657427e+00	
5974	9.418896e+08	1.657419e+00	
5975	9.440609e+08	1.657411e+00	
5976	9.462372e+08	1.657403e+00	
5977	9.484185e+08	1.657395e+00	
5978	9.506048e+08	1.657387e+00	
5979	9.527962e+08	1.657380e+00	
5980	9.549926e+08	1.657372e+00	
5981	9.571941e+08	1.657364e+00	
5982	9.594006e+08	1.657356e+00	
5983	9.616123e+08	1.657348e+00	
5984	9.638290e+08	1.657341e+00	
5985	9.660509e+08	1.657333e+00	
5986	9.682779e+08	1.657325e+00	
5987	9.705100e+08	1.657318e+00	
5988	9.727472e+08	1.657310e+00	
5989	9.749896e+08	1.657303e+00	
5990	9.772372e+08	1.657295e+00	
5991	9.794900e+08	1.657288e+00	
5992	9.817479e+08	1.657280e+00	
5993	9.840111e+08	1.657273e+00	
5994	9.862795e+08	1.657266e+00	
5995	9.885531e+08	1.657258e+00	
5996	9.908319e+08	1.657251e+00	
5997	9.931160e+08	1.657244e+00	
5998	9.954054e+08	1.657236e+00	
5999	9.977001e+08	1.657229e+00	
6000	1.000000e+09	1.657222e+00	

CPU time since last call: 0.060 seconds.

Total CPU time: 0.060 seconds.

Total DRAM available = 7808.492188 MB.
DRAM currently available = 695.289062 MB.
Total ngspice program size = 3.460938 MB.
Resident set size = 1.716797 MB.
Shared ngspice pages = 1.404297 MB.
Text (code) pages = 1.324219 MB.
Stack = 0 bytes.
Library pages = 406.000 kB.

